/*--------------------------------*- C++ -*----------------------------------*\
| =========                 |                                                 |
| \\      /  F ield         | OpenFOAM: The Open Source CFD Toolbox           |
|  \\    /   O peration     | Version:  v2512                                 |
|   \\  /    A nd           | Website:  www.openfoam.com                      |
|    \\/     M anipulation  |                                                 |
\*---------------------------------------------------------------------------*/
FoamFile
{
    version     2.0;
    format      ascii;
    class       volScalarField;
    object      nut;
}
// * * * * * * * * * * * * * * * * * * * * * * * * * * * * * * * * * * * * * //

dimensions      [0 2 -1 0 0 0 0];

internalField   uniform 0.0572;

boundaryField
{
    inlet
    {
        type            cyclicAMI;
        value           uniform 0;
    }

    outlet
    {
        type            cyclicAMI;
        value           uniform 0;
    }

    wall
    {
        type            nutUSpaldingWallFunction;
        value           uniform 0;
    }
}


// ************************************************************************* //
