/*--------------------------------*- C++ -*----------------------------------*\
| =========                 |                                                 |
| \\      /  F ield         | OpenFOAM: The Open Source CFD Toolbox           |
|  \\    /   O peration     | Version:  v2512                                 |
|   \\  /    A nd           | Website:  www.openfoam.com                      |
|    \\/     M anipulation  |                                                 |
\*---------------------------------------------------------------------------*/
FoamFile
{
    version     2.0;
    format      ascii;
    class       dictionary;
    object      controlDict;
}
// * * * * * * * * * * * * * * * * * * * * * * * * * * * * * * * * * * * * * //
application     pisoFoam;
startFrom       startTime;
startTime       0.8035;
stopAt          endTime;
endTime         4.1;        
deltaT          1e-4;     
writeControl    timeStep;
writeInterval   5;        
purgeWrite      50;
writeFormat     binary;     
writePrecision  8;
writeCompression off;
timeFormat      general;
timePrecision   8;
runTimeModifiable true;

functions
{

    fieldAverage1
    {
        type            fieldAverage;
        libs            (fieldFunctionObjects);
        writeControl    writeTime;
        cleanRestart    true;

        fields
        (
            U
            {
                mean        on;
                prime2Mean  on;
                base        time;
            }
            nut
            {
                mean        on;
                prime2Mean  off;
                base        time;
            }
            p
            {
                mean        on;
                prime2Mean  off;
                base        time;
            }
        );
    }
    yPlus
    {
        type            yPlus;
        libs            (fieldFunctionObjects);
        writeControl    timeStep;
        writeInterval   1;
    }

    CourantNo
    {
        type            CourantNo;
        libs            (fieldFunctionObjects);
        writeControl    timeStep;
        writeInterval   1;
    }
}
// ************************************************************************* //
