/*--------------------------------*- C++ -*----------------------------------*\
| =========                 |                                                 |
| \\      /  F ield         | OpenFOAM: The Open Source CFD Toolbox           |
|  \\    /   O peration     | Version:  2512                                  |
|   \\  /    A nd           | Website:  www.openfoam.com                      |
|    \\/     M anipulation  |                                                 |
\*---------------------------------------------------------------------------*/
FoamFile
{
    version     2.0;
    format      ascii;
    arch        "LSB;label=32;scalar=64";
    note        "face data";
    class       vectorField;
    location    "/home/khoi/Desktop/PressureStraight/MeshIndependenceStudy/Fine/postProcessing/outletSample/outlet/602";
    object      U;
}
// * * * * * * * * * * * * * * * * * * * * * * * * * * * * * * * * * * * * * //


3168
(
(3.28441e-06 3.092e-06 9.6935)
(2.67438e-06 2.29336e-06 9.74426)
(1.99721e-06 1.29413e-06 9.78255)
(2.02839e-06 1.0245e-06 9.80972)
(2.22441e-06 1.22392e-06 9.82789)
(2.40535e-06 1.22521e-06 9.83885)
(2.55905e-06 1.09017e-06 9.84402)
(2.67078e-06 1.09896e-06 9.84466)
(2.86457e-06 1.09829e-06 9.84208)
(3.92685e-06 1.15525e-06 9.83767)
(4.02614e-06 9.46801e-07 9.83305)
(4.02429e-06 7.67335e-07 9.82998)
(3.6185e-06 4.23802e-07 9.82999)
(2.72674e-06 -2.24946e-08 9.83308)
(3.70559e-06 -3.40411e-07 9.83773)
(3.59074e-06 -1.97948e-07 9.84216)
(2.37212e-06 1.60266e-07 9.84477)
(2.13123e-06 2.19298e-07 9.84415)
(2.01918e-06 2.66491e-07 9.83902)
(1.96e-06 3.05366e-07 9.82808)
(2.06396e-06 2.06879e-07 9.80992)
(2.72583e-06 -7.00074e-07 9.78277)
(2.51515e-06 -8.01252e-07 9.74448)
(2.93333e-06 -1.74927e-06 9.69371)
(3.54197e-06 2.90921e-06 9.49275)
(3.92763e-06 2.51879e-06 9.54208)
(3.65844e-06 2.00237e-06 9.58165)
(3.00667e-06 1.4979e-06 9.61067)
(3.28009e-06 1.75101e-06 9.63033)
(2.78661e-06 1.44736e-06 9.64222)
(3.42509e-06 1.73049e-06 9.6478)
(3.51048e-06 1.62835e-06 9.64847)
(3.25054e-06 1.55234e-06 9.64563)
(2.55005e-06 1.28041e-06 9.64082)
(2.64703e-06 8.96833e-07 9.63579)
(3.33761e-06 6.15756e-07 9.63245)
(2.87011e-06 2.96855e-07 9.63246)
(3.3419e-06 1.7689e-07 9.63581)
(2.73594e-06 1.88064e-07 9.64085)
(3.22592e-06 -3.5079e-07 9.64567)
(2.67065e-06 -2.45445e-07 9.64852)
(3.2528e-06 -3.85179e-07 9.64787)
(2.88925e-06 -8.97496e-08 9.6423)
(3.4776e-06 -3.86283e-07 9.63042)
(3.11138e-06 -2.07811e-07 9.61076)
(3.38128e-06 -6.3622e-07 9.58173)
(3.74735e-06 -1.2781e-06 9.54216)
(3.1548e-06 -1.58348e-06 9.4928)
(2.36173e-06 2.36717e-06 9.27729)
(2.82569e-06 2.12392e-06 9.32774)
(2.5722e-06 1.67644e-06 9.36825)
(2.67549e-06 1.62581e-06 9.39823)
(2.34911e-06 1.37889e-06 9.41868)
(2.55615e-06 1.5191e-06 9.4311)
(2.34901e-06 1.34178e-06 9.43692)
(2.79063e-06 1.26782e-06 9.43758)
(2.41998e-06 1.02405e-06 9.43456)
(2.7328e-06 9.77263e-07 9.42947)
(2.51246e-06 8.51509e-07 9.42417)
(2.94064e-06 7.3611e-07 9.42064)
(2.53308e-06 5.34589e-07 9.42065)
(2.93596e-06 3.82445e-07 9.42417)
(2.84184e-06 2.26327e-07 9.42949)
(2.43667e-06 1.09166e-07 9.43457)
(2.70226e-06 -5.21537e-08 9.4376)
(2.42665e-06 -4.96808e-08 9.43694)
(2.72152e-06 -2.70679e-07 9.43111)
(2.59557e-06 -1.48147e-07 9.41869)
(2.69242e-06 -2.36494e-07 9.39823)
(3.2409e-06 -6.49575e-07 9.36823)
(3.12355e-06 -9.28661e-07 9.32771)
(2.55145e-06 -1.01873e-06 9.27723)
(2.08242e-06 2.21005e-06 9.05336)
(2.23758e-06 1.88297e-06 9.10486)
(2.28246e-06 1.71844e-06 9.1462)
(2.06799e-06 1.47136e-06 9.17685)
(2.17716e-06 1.41208e-06 9.1978)
(2.07003e-06 1.27545e-06 9.21054)
(2.26925e-06 1.26632e-06 9.21652)
(2.18241e-06 1.07207e-06 9.21716)
(2.25927e-06 1.06134e-06 9.21402)
(2.12488e-06 9.10395e-07 9.20875)
(2.20958e-06 8.07132e-07 9.20326)
(2.23275e-06 7.95695e-07 9.19961)
(2.25874e-06 7.20208e-07 9.19961)
(2.25898e-06 6.15e-07 9.20325)
(2.31135e-06 4.10915e-07 9.20875)
(2.38412e-06 2.73154e-07 9.21401)
(2.2502e-06 1.75386e-07 9.21715)
(2.35003e-06 2.99719e-09 9.21649)
(2.19344e-06 -8.92761e-08 9.21051)
(2.16716e-06 -1.56908e-07 9.19775)
(2.45521e-06 -2.2841e-07 9.17677)
(2.45849e-06 -2.71376e-07 9.1461)
(2.49851e-06 -5.5582e-07 9.10474)
(2.13355e-06 -7.11879e-07 9.05323)
(1.64304e-06 1.93185e-06 8.82417)
(1.80396e-06 1.7333e-06 8.87645)
(1.79523e-06 1.61674e-06 8.91847)
(1.74166e-06 1.45796e-06 8.94963)
(1.81316e-06 1.29436e-06 8.97095)
(1.82914e-06 1.16463e-06 8.98392)
(1.85055e-06 1.11319e-06 8.98999)
(1.86031e-06 1.02103e-06 8.99063)
(1.88223e-06 1.00829e-06 8.9874)
(1.7807e-06 9.15707e-07 8.98201)
(1.75391e-06 8.06103e-07 8.97639)
(1.81566e-06 8.37588e-07 8.97266)
(1.83257e-06 8.31676e-07 8.97266)
(1.86829e-06 6.81826e-07 8.97638)
(1.97971e-06 5.7139e-07 8.98199)
(1.97622e-06 4.89911e-07 8.98737)
(1.97258e-06 3.38933e-07 8.99059)
(1.94459e-06 1.99344e-07 8.98994)
(2.02112e-06 4.10111e-08 8.98385)
(1.88866e-06 3.62183e-09 8.97086)
(2.02707e-06 -7.54781e-08 8.94951)
(2.0811e-06 -8.6242e-08 8.91833)
(2.10865e-06 -2.60882e-07 8.87629)
(1.80784e-06 -4.29926e-07 8.82399)
(1.23941e-06 1.65428e-06 8.59137)
(1.30756e-06 1.50954e-06 8.6443)
(1.38017e-06 1.45068e-06 8.68688)
(1.40339e-06 1.31757e-06 8.71846)
(1.49786e-06 1.19009e-06 8.74006)
(1.49939e-06 1.1341e-06 8.7532)
(1.44745e-06 1.0371e-06 8.75934)
(1.56637e-06 9.42009e-07 8.75998)
(1.5996e-06 9.89813e-07 8.75669)
(1.3977e-06 9.17791e-07 8.75121)
(1.42556e-06 8.28623e-07 8.7455)
(1.3785e-06 8.81173e-07 8.74171)
(1.49727e-06 9.56943e-07 8.74171)
(1.51117e-06 8.46814e-07 8.74549)
(1.57595e-06 7.47421e-07 8.75119)
(1.61215e-06 6.73375e-07 8.75665)
(1.56842e-06 5.19678e-07 8.75993)
(1.52977e-06 3.61334e-07 8.75927)
(1.63904e-06 2.29881e-07 8.75311)
(1.5244e-06 1.839e-07 8.73994)
(1.69696e-06 7.71087e-08 8.71831)
(1.7674e-06 7.72654e-08 8.6867)
(1.83234e-06 -9.35707e-08 8.6441)
(1.55697e-06 -1.85067e-07 8.59116)
(8.66788e-07 1.38102e-06 8.35568)
(9.32352e-07 1.32006e-06 8.4092)
(1.05375e-06 1.26629e-06 8.4523)
(1.15477e-06 1.22236e-06 8.48426)
(1.19025e-06 1.12665e-06 8.50611)
(1.12893e-06 1.08508e-06 8.51939)
(1.22041e-06 1.05829e-06 8.52559)
(1.11991e-06 8.60411e-07 8.52622)
(1.09683e-06 9.31291e-07 8.52288)
(1.03598e-06 9.58433e-07 8.51733)
(1.11164e-06 8.56713e-07 8.51155)
(9.71265e-07 8.53442e-07 8.50772)
(1.19909e-06 1.00513e-06 8.50772)
(1.24222e-06 1.01766e-06 8.51154)
(1.37825e-06 9.18087e-07 8.51731)
(1.20479e-06 8.13823e-07 8.52285)
(1.29435e-06 6.17901e-07 8.52617)
(1.26309e-06 5.17537e-07 8.52551)
(1.45323e-06 3.88155e-07 8.51929)
(1.23591e-06 3.27327e-07 8.50598)
(1.44503e-06 1.59017e-07 8.48409)
(1.49158e-06 2.23541e-07 8.4521)
(1.62573e-06 2.3579e-08 8.40898)
(1.30517e-06 1.51396e-08 8.35545)
(5.5257e-07 1.16021e-06 8.11713)
(5.75497e-07 1.13851e-06 8.17129)
(8.38886e-07 1.16351e-06 8.21493)
(8.43194e-07 1.11519e-06 8.24726)
(8.89308e-07 1.11097e-06 8.26935)
(8.90029e-07 1.04737e-06 8.28277)
(8.20105e-07 9.6906e-07 8.28903)
(7.79222e-07 8.64222e-07 8.28966)
(7.11712e-07 9.30644e-07 8.28627)
(7.73057e-07 9.95614e-07 8.28065)
(8.09307e-07 9.08622e-07 8.2748)
(7.27189e-07 8.27963e-07 8.27093)
(9.12412e-07 1.00564e-06 8.27093)
(9.91497e-07 1.18602e-06 8.27479)
(1.12856e-06 1.04556e-06 8.28063)
(9.33547e-07 8.79773e-07 8.28623)
(1.03962e-06 7.37265e-07 8.2896)
(1.00429e-06 6.76577e-07 8.28895)
(1.12885e-06 6.01169e-07 8.28266)
(9.73939e-07 4.97416e-07 8.26921)
(1.25846e-06 2.84019e-07 8.24709)
(1.26359e-06 3.33295e-07 8.21473)
(1.26462e-06 2.26408e-07 8.17107)
(1.0953e-06 1.40411e-07 8.1169)
(3.23626e-07 1.06571e-06 7.87533)
(3.30114e-07 1.06133e-06 7.93024)
(6.06605e-07 1.04004e-06 7.97447)
(5.5811e-07 1.00132e-06 8.0072)
(5.55865e-07 1.03508e-06 8.02955)
(6.24839e-07 9.73134e-07 8.04311)
(5.82091e-07 9.62854e-07 8.04943)
(4.94789e-07 9.30503e-07 8.05005)
(4.70357e-07 9.5005e-07 8.04662)
(4.46768e-07 9.45447e-07 8.04094)
(5.37568e-07 9.45154e-07 8.03502)
(4.80343e-07 8.61061e-07 8.0311)
(6.55014e-07 1.03532e-06 8.03109)
(7.28413e-07 1.29294e-06 8.03501)
(8.83617e-07 1.14428e-06 8.04091)
(7.41523e-07 9.72542e-07 8.04658)
(8.95764e-07 8.13733e-07 8.04999)
(7.94059e-07 7.96982e-07 8.04934)
(9.12735e-07 7.89425e-07 8.04299)
(7.86449e-07 6.48597e-07 8.0294)
(1.01561e-06 4.438e-07 8.00702)
(1.00024e-06 4.87448e-07 7.97426)
(1.06545e-06 2.90763e-07 7.93001)
(9.07432e-07 2.44428e-07 7.87509)
(8.0049e-08 9.61483e-07 7.62947)
(1.02449e-07 9.68286e-07 7.68529)
(3.39757e-07 9.29141e-07 7.7302)
(3.60736e-07 9.21294e-07 7.76339)
(4.0791e-07 9.90429e-07 7.78603)
(3.78917e-07 9.22676e-07 7.79976)
(3.99801e-07 1.00677e-06 7.80615)
(3.58775e-07 1.04618e-06 7.80677)
(2.55116e-07 9.36156e-07 7.80329)
(3.48098e-07 8.73086e-07 7.79753)
(3.855e-07 9.65928e-07 7.79153)
(4.3026e-07 9.583e-07 7.78756)
(4.75213e-07 1.11502e-06 7.78755)
(6.48441e-07 1.32938e-06 7.79152)
(7.99844e-07 1.18507e-06 7.7975)
(6.6087e-07 1.05305e-06 7.80325)
(6.7971e-07 9.41483e-07 7.80671)
(6.24073e-07 9.30244e-07 7.80606)
(7.99285e-07 9.16441e-07 7.79964)
(6.63262e-07 7.41516e-07 7.78588)
(8.87913e-07 5.19901e-07 7.76321)
(8.78342e-07 5.56444e-07 7.72998)
(8.91748e-07 3.8546e-07 7.68505)
(7.27355e-07 3.49101e-07 7.62923)
(-5.87791e-08 9.27634e-07 7.37841)
(-5.99309e-08 9.39287e-07 7.43533)
(1.42531e-07 9.00345e-07 7.48105)
(1.42048e-07 8.04715e-07 7.51479)
(2.89971e-07 9.13607e-07 7.53778)
(2.43055e-07 9.20501e-07 7.55171)
(2.89808e-07 1.08035e-06 7.55818)
(2.18483e-07 1.13129e-06 7.55881)
(1.37287e-07 9.31735e-07 7.55528)
(2.06695e-07 8.00066e-07 7.54942)
(2.61663e-07 9.57164e-07 7.54333)
(3.60299e-07 1.05352e-06 7.53929)
(3.81127e-07 1.19936e-06 7.53929)
(5.48796e-07 1.34884e-06 7.54332)
(6.50654e-07 1.24036e-06 7.54939)
(5.66855e-07 1.12543e-06 7.55523)
(6.39108e-07 1.03499e-06 7.55875)
(5.3013e-07 1.04963e-06 7.5581)
(6.43219e-07 1.0412e-06 7.55159)
(6.42617e-07 7.93981e-07 7.53763)
(7.54866e-07 5.99928e-07 7.51461)
(7.90991e-07 5.9408e-07 7.48083)
(8.11493e-07 4.30933e-07 7.43509)
(6.12836e-07 4.12099e-07 7.37817)
(-1.79258e-07 9.08568e-07 7.12062)
(-2.16173e-07 9.09539e-07 7.17888)
(-3.26131e-08 8.74124e-07 7.22557)
(3.88594e-08 7.64298e-07 7.25999)
(1.76422e-07 8.37293e-07 7.28341)
(8.38809e-08 8.88453e-07 7.29758)
(1.06694e-07 1.07606e-06 7.30417)
(1.39669e-07 1.20127e-06 7.3048)
(1.01945e-07 9.47684e-07 7.3012)
(1.60458e-07 7.60514e-07 7.29524)
(1.76445e-07 9.58046e-07 7.28903)
(2.60651e-07 1.11617e-06 7.28491)
(3.25265e-07 1.26035e-06 7.28491)
(5.27595e-07 1.37456e-06 7.28901)
(5.40804e-07 1.2962e-06 7.29521)
(5.07515e-07 1.16963e-06 7.30116)
(6.24923e-07 1.11724e-06 7.30474)
(4.66566e-07 1.15449e-06 7.30408)
(6.08962e-07 1.08224e-06 7.29746)
(6.39363e-07 8.26916e-07 7.28326)
(6.79395e-07 6.58959e-07 7.2598)
(6.93732e-07 6.60705e-07 7.22536)
(7.53863e-07 4.69292e-07 7.17864)
(5.35831e-07 4.35413e-07 7.12038)
(-2.69139e-07 9.08283e-07 6.85413)
(-3.20807e-07 9.06839e-07 6.91401)
(-1.41877e-07 8.61142e-07 6.96189)
(-9.72154e-09 7.59184e-07 6.99713)
(1.10149e-07 8.04876e-07 7.02108)
(-7.25825e-08 8.39847e-07 7.03557)
(-1.58669e-09 1.07161e-06 7.0423)
(4.71238e-08 1.24488e-06 7.04295)
(1.4475e-08 9.51807e-07 7.03926)
(1.0986e-07 7.25615e-07 7.03316)
(1.04563e-07 9.51172e-07 7.02681)
(1.77353e-07 1.15304e-06 7.0226)
(2.70504e-07 1.30092e-06 7.02259)
(4.79711e-07 1.3942e-06 7.02679)
(5.27231e-07 1.32888e-06 7.03313)
(4.51479e-07 1.20481e-06 7.03921)
(5.80232e-07 1.18853e-06 7.04288)
(5.01654e-07 1.21015e-06 7.04222)
(5.90312e-07 1.10923e-06 7.03546)
(6.25507e-07 8.50965e-07 7.02094)
(6.713e-07 6.7535e-07 6.99695)
(6.96149e-07 6.54797e-07 6.96168)
(7.24403e-07 4.85114e-07 6.91378)
(5.18327e-07 4.03485e-07 6.8539)
(-3.56681e-07 8.8285e-07 6.57639)
(-3.82353e-07 9.12207e-07 6.63824)
(-2.03412e-07 8.64729e-07 6.68758)
(-7.53401e-08 7.47477e-07 6.72384)
(3.43845e-08 7.78438e-07 6.74846)
(-1.72496e-07 7.92649e-07 6.76335)
(-5.28335e-08 1.05841e-06 6.77025)
(-1.69241e-08 1.27708e-06 6.77091)
(-6.62206e-09 9.62633e-07 6.76712)
(1.05076e-07 6.98747e-07 6.76086)
(6.61432e-08 9.45215e-07 6.75433)
(1.42922e-07 1.17572e-06 6.75)
(2.48308e-07 1.3173e-06 6.74999)
(4.36956e-07 1.39198e-06 6.75431)
(5.09052e-07 1.35277e-06 6.76082)
(3.79023e-07 1.24075e-06 6.76708)
(5.57275e-07 1.23112e-06 6.77085)
(5.22468e-07 1.24092e-06 6.77017)
(5.90728e-07 1.11568e-06 6.76323)
(5.91551e-07 8.77778e-07 6.74832)
(6.64138e-07 6.79126e-07 6.72366)
(7.07293e-07 6.441e-07 6.68737)
(6.93116e-07 5.00371e-07 6.63801)
(5.03745e-07 3.65569e-07 6.57616)
(-4.3969e-07 8.39829e-07 6.2841)
(-4.25352e-07 9.05772e-07 6.34836)
(-2.65896e-07 8.52418e-07 6.39949)
(-1.1177e-07 7.41563e-07 6.43701)
(-4.98343e-08 7.42907e-07 6.46248)
(-2.1186e-07 7.53334e-07 6.47786)
(-9.76249e-08 1.03051e-06 6.48499)
(-8.58882e-08 1.28438e-06 6.48567)
(-6.50256e-09 9.68824e-07 6.48175)
(7.79379e-08 6.69433e-07 6.47528)
(5.95966e-08 9.33097e-07 6.46853)
(1.43459e-07 1.17973e-06 6.46406)
(2.53127e-07 1.31402e-06 6.46405)
(3.93399e-07 1.37776e-06 6.46851)
(4.52139e-07 1.36919e-06 6.47524)
(3.49385e-07 1.25237e-06 6.48171)
(5.64882e-07 1.24335e-06 6.4856)
(5.19728e-07 1.25704e-06 6.48491)
(5.84173e-07 1.11609e-06 6.47774)
(5.67632e-07 8.94721e-07 6.46233)
(6.28633e-07 6.91778e-07 6.43684)
(6.99006e-07 6.39558e-07 6.39929)
(6.41516e-07 5.28852e-07 6.34813)
(4.63508e-07 3.4661e-07 6.28387)
(-4.86599e-07 8.04062e-07 5.97289)
(-4.59677e-07 8.81396e-07 6.0401)
(-3.02843e-07 8.38939e-07 6.09346)
(-1.30266e-07 7.35452e-07 6.13257)
(-1.2455e-07 7.03339e-07 6.15908)
(-2.27241e-07 7.11833e-07 6.17508)
(-1.36241e-07 9.94911e-07 6.1825)
(-1.51237e-07 1.27082e-06 6.1832)
(-2.15476e-08 9.56551e-07 6.17913)
(4.60543e-08 6.32673e-07 6.17239)
(7.1982e-08 9.15066e-07 6.16537)
(1.25742e-07 1.16564e-06 6.16072)
(2.41762e-07 1.29206e-06 6.16071)
(3.53552e-07 1.34683e-06 6.16535)
(3.89903e-07 1.36481e-06 6.17236)
(3.51831e-07 1.23771e-06 6.17908)
(5.79865e-07 1.23027e-06 6.18314)
(5.10331e-07 1.25578e-06 6.18242)
(5.75727e-07 1.10594e-06 6.17497)
(5.33739e-07 9.04143e-07 6.15893)
(6.14084e-07 6.83651e-07 6.13239)
(6.85753e-07 6.32739e-07 6.09326)
(5.91157e-07 5.50178e-07 6.03988)
(4.18624e-07 3.27408e-07 5.97267)
(-5.01921e-07 7.71005e-07 5.63692)
(-4.75132e-07 8.47613e-07 5.70777)
(-3.35151e-07 8.08096e-07 5.76391)
(-1.52584e-07 7.13442e-07 5.805)
(-1.75637e-07 6.63484e-07 5.83283)
(-2.12645e-07 6.74643e-07 5.84962)
(-1.55945e-07 9.56745e-07 5.85739)
(-1.9136e-07 1.24501e-06 5.85813)
(-4.75065e-08 9.24446e-07 5.85386)
(2.1744e-08 5.93092e-07 5.84679)
(6.53573e-08 8.86514e-07 5.83943)
(1.07795e-07 1.13516e-06 5.83455)
(2.41731e-07 1.25171e-06 5.83454)
(3.31309e-07 1.2921e-06 5.83941)
(3.37982e-07 1.33673e-06 5.84676)
(3.55406e-07 1.20729e-06 5.85381)
(5.69033e-07 1.20614e-06 5.85807)
(4.84813e-07 1.23909e-06 5.85731)
(5.59708e-07 1.08435e-06 5.84951)
(4.97238e-07 9.00929e-07 5.83269)
(5.87496e-07 6.73038e-07 5.80483)
(6.77294e-07 6.13984e-07 5.76371)
(5.5421e-07 5.50529e-07 5.70755)
(3.85106e-07 2.97525e-07 5.63671)
(-5.00151e-07 7.25788e-07 5.2666)
(-4.81374e-07 7.98107e-07 5.34229)
(-3.5502e-07 7.66914e-07 5.40217)
(-1.60216e-07 6.81474e-07 5.44595)
(-2.04137e-07 6.17289e-07 5.47557)
(-1.95285e-07 6.32741e-07 5.49344)
(-1.69076e-07 9.12135e-07 5.5017)
(-2.35406e-07 1.19861e-06 5.50249)
(-6.84571e-08 8.76818e-07 5.49794)
(-4.81996e-09 5.49743e-07 5.49043)
(5.19785e-08 8.46493e-07 5.4826)
(7.69202e-08 1.08524e-06 5.47741)
(2.20342e-07 1.19383e-06 5.4774)
(2.82211e-07 1.21814e-06 5.48258)
(2.89233e-07 1.2845e-06 5.4904)
(3.47586e-07 1.16583e-06 5.4979)
(5.39725e-07 1.17442e-06 5.50243)
(4.52302e-07 1.20179e-06 5.50163)
(5.09224e-07 1.0589e-06 5.49332)
(4.76556e-07 8.73435e-07 5.47543)
(5.52724e-07 6.57396e-07 5.44578)
(6.39081e-07 6.01863e-07 5.40197)
(5.30301e-07 5.30772e-07 5.34207)
(3.50183e-07 2.68558e-07 5.26639)
(-5.04104e-07 6.46983e-07 4.84852)
(-4.94431e-07 7.1655e-07 4.93046)
(-3.43122e-07 7.25265e-07 4.99527)
(-1.48795e-07 6.41793e-07 5.04261)
(-2.11331e-07 5.6575e-07 5.07464)
(-1.89752e-07 5.80099e-07 5.09394)
(-2.09476e-07 8.46623e-07 5.10287)
(-2.99284e-07 1.1195e-06 5.10372)
(-7.84847e-08 8.14779e-07 5.09882)
(-2.09993e-08 5.04232e-07 5.0907)
(5.26674e-08 7.95307e-07 5.08224)
(5.8038e-08 1.01693e-06 5.07664)
(1.70869e-07 1.1187e-06 5.07663)
(2.38333e-07 1.12096e-06 5.08222)
(2.4287e-07 1.20445e-06 5.09067)
(3.05554e-07 1.1125e-06 5.09878)
(5.14367e-07 1.11823e-06 5.10367)
(4.4091e-07 1.13994e-06 5.1028)
(4.69833e-07 1.00683e-06 5.09383)
(4.60996e-07 8.24076e-07 5.0745)
(5.24421e-07 6.28934e-07 5.04244)
(5.64742e-07 5.98508e-07 4.99507)
(4.92072e-07 5.12255e-07 4.93025)
(2.99005e-07 2.54868e-07 4.8483)
(-4.73626e-07 5.69308e-07 4.36847)
(-4.73689e-07 6.3363e-07 4.45726)
(-3.26065e-07 6.62884e-07 4.52762)
(-1.44561e-07 5.76264e-07 4.57906)
(-1.87733e-07 5.12645e-07 4.61388)
(-2.02899e-07 5.15517e-07 4.63487)
(-2.26859e-07 7.76901e-07 4.64458)
(-3.09267e-07 1.02905e-06 4.6455)
(-1.14977e-07 7.27736e-07 4.64017)
(-1.54478e-08 4.57201e-07 4.63135)
(2.80414e-08 7.26709e-07 4.62216)
(5.96132e-08 9.30344e-07 4.61607)
(9.22474e-08 1.02478e-06 4.61606)
(2.07252e-07 9.96681e-07 4.62214)
(2.05324e-07 1.09333e-06 4.63132)
(2.75205e-07 1.03261e-06 4.64013)
(4.5428e-07 1.04371e-06 4.64544)
(4.11333e-07 1.05846e-06 4.6445)
(4.44153e-07 9.24779e-07 4.63476)
(4.2836e-07 7.64592e-07 4.61374)
(4.81801e-07 5.97491e-07 4.57889)
(4.95813e-07 5.71693e-07 4.52742)
(4.19111e-07 5.01098e-07 4.45705)
(2.55666e-07 2.34205e-07 4.36826)
(-4.03632e-07 4.96046e-07 3.81301)
(-4.14633e-07 5.54384e-07 3.90771)
(-3.01404e-07 5.81698e-07 3.98317)
(-1.50881e-07 4.83238e-07 4.03854)
(-1.6346e-07 4.41455e-07 4.07611)
(-1.85477e-07 4.57576e-07 4.09878)
(-2.10415e-07 6.99526e-07 4.10928)
(-2.63228e-07 9.28264e-07 4.11029)
(-1.26041e-07 6.31501e-07 4.10452)
(-1.81233e-08 4.02626e-07 4.09499)
(-2.91258e-08 6.38144e-07 4.08507)
(4.86384e-08 8.2169e-07 4.07849)
(4.80026e-08 9.07026e-07 4.07848)
(1.67628e-07 8.4794e-07 4.08505)
(1.69286e-07 9.49429e-07 4.09496)
(2.58158e-07 9.21634e-07 4.10448)
(3.54296e-07 9.51949e-07 4.11023)
(3.38088e-07 9.6172e-07 4.10921)
(3.99078e-07 8.23744e-07 4.09867)
(3.82429e-07 6.88848e-07 4.07598)
(4.28363e-07 5.54157e-07 4.03838)
(4.44052e-07 5.11508e-07 3.98298)
(3.57694e-07 4.59381e-07 3.90751)
(2.18457e-07 2.01793e-07 3.81281)
(-3.25643e-07 4.02127e-07 3.16973)
(-3.47769e-07 4.54211e-07 3.26736)
(-2.66888e-07 4.82085e-07 3.34602)
(-1.72578e-07 3.60392e-07 3.40418)
(-1.32797e-07 3.55747e-07 3.44384)
(-1.39283e-07 4.02653e-07 3.46785)
(-1.89177e-07 6.00158e-07 3.47899)
(-2.20039e-07 7.94476e-07 3.48005)
(-1.00647e-07 5.28319e-07 3.47394)
(-2.30551e-08 3.41422e-07 3.46384)
(-5.30331e-08 5.34938e-07 3.45333)
(2.92089e-08 6.87077e-07 3.44638)
(4.44191e-08 7.6286e-07 3.44637)
(1.27604e-07 6.77936e-07 3.45332)
(1.38752e-07 7.76729e-07 3.46381)
(2.15408e-07 7.86141e-07 3.4739)
(2.7489e-07 8.18747e-07 3.48)
(2.79902e-07 8.24387e-07 3.47892)
(3.37937e-07 6.98674e-07 3.46774)
(3.25713e-07 5.91826e-07 3.44371)
(3.6487e-07 4.92189e-07 3.40403)
(3.73771e-07 4.38487e-07 3.34584)
(3.13267e-07 3.80708e-07 3.26718)
(1.76866e-07 1.69711e-07 3.16954)
(-2.42034e-07 2.98637e-07 2.45709)
(-2.68747e-07 3.44071e-07 2.54797)
(-2.21034e-07 3.69186e-07 2.62249)
(-1.49226e-07 2.51733e-07 2.67834)
(-9.97224e-08 2.59943e-07 2.71677)
(-1.11634e-07 3.26732e-07 2.74018)
(-1.60556e-07 4.78289e-07 2.75107)
(-1.76786e-07 6.28673e-07 2.75212)
(-7.88781e-08 4.10182e-07 2.74614)
(-2.54055e-08 2.72477e-07 2.73628)
(-3.19025e-08 4.20264e-07 2.72603)
(1.5674e-08 5.3222e-07 2.71927)
(3.40911e-08 5.96282e-07 2.71926)
(9.28085e-08 4.95261e-07 2.72602)
(1.03573e-07 5.83705e-07 2.73625)
(1.62069e-07 6.22435e-07 2.7461)
(2.24929e-07 6.42417e-07 2.75207)
(2.40647e-07 6.47693e-07 2.75101)
(2.63337e-07 5.51866e-07 2.74008)
(2.58639e-07 4.7387e-07 2.71666)
(2.87463e-07 4.11818e-07 2.67821)
(2.87471e-07 3.52399e-07 2.62234)
(2.50643e-07 2.95905e-07 2.54781)
(1.23463e-07 1.44749e-07 2.45694)
(-1.64165e-07 2.02466e-07 1.7579)
(-1.8885e-07 2.38635e-07 1.82854)
(-1.6524e-07 2.5867e-07 1.88728)
(-8.86648e-08 1.71988e-07 1.93183)
(-6.98383e-08 1.69417e-07 1.96275)
(-8.88105e-08 2.41142e-07 1.9817)
(-1.22043e-07 3.47393e-07 1.99055)
(-1.29399e-07 4.51672e-07 1.9914)
(-5.89109e-08 2.90116e-07 1.98654)
(-2.42335e-08 2.00479e-07 1.97854)
(-2.19705e-08 3.00914e-07 1.97025)
(8.19183e-09 3.75324e-07 1.96478)
(2.13079e-08 4.25151e-07 1.96477)
(6.00946e-08 3.24888e-07 1.97024)
(6.90804e-08 3.95404e-07 1.97852)
(1.11884e-07 4.47212e-07 1.98651)
(1.59256e-07 4.59374e-07 1.99136)
(1.79514e-07 4.66634e-07 1.9905)
(1.87218e-07 3.9712e-07 1.98162)
(1.85335e-07 3.48088e-07 1.96267)
(2.066e-07 3.16568e-07 1.93173)
(2.02293e-07 2.58538e-07 1.88717)
(1.80661e-07 2.13158e-07 1.82842)
(5.45284e-08 1.36907e-07 1.75779)
(-1.01527e-07 1.23078e-07 1.14377)
(-1.19719e-07 1.50306e-07 1.1906)
(-1.09304e-07 1.64719e-07 1.22971)
(-5.04661e-08 1.01852e-07 1.25946)
(-4.39679e-08 9.90108e-08 1.28018)
(-6.37348e-08 1.6102e-07 1.2929)
(-8.19377e-08 2.27268e-07 1.29885)
(-8.47957e-08 2.92459e-07 1.29942)
(-3.96188e-08 1.85953e-07 1.29615)
(-1.83145e-08 1.33631e-07 1.29078)
(-1.52371e-08 1.9385e-07 1.28521)
(2.60384e-09 2.38106e-07 1.28154)
(1.22098e-08 2.72777e-07 1.28154)
(3.25775e-08 1.90682e-07 1.28521)
(4.15606e-08 2.4009e-07 1.29077)
(7.0232e-08 2.87948e-07 1.29614)
(9.86648e-08 2.95201e-07 1.2994)
(1.17022e-07 3.0337e-07 1.29882)
(1.19589e-07 2.56772e-07 1.29285)
(1.08465e-07 2.35464e-07 1.28013)
(1.24756e-07 2.23616e-07 1.2594)
(1.29808e-07 1.70495e-07 1.22963)
(1.17962e-07 1.39891e-07 1.19053)
(2.60389e-08 1.0033e-07 1.14369)
(-5.26734e-08 6.22673e-08 0.627159)
(-6.41968e-08 8.02633e-08 0.652907)
(-6.03882e-08 8.85358e-08 0.674412)
(-2.5615e-08 4.89186e-08 0.690786)
(-2.29447e-08 4.91215e-08 0.70219)
(-3.78215e-08 9.15072e-08 0.709193)
(-4.61761e-08 1.25739e-07 0.71247)
(-4.70218e-08 1.6104e-07 0.712785)
(-2.26168e-08 1.02041e-07 0.710987)
(-1.10199e-08 7.4937e-08 0.708029)
(-8.99863e-09 1.04582e-07 0.704963)
(-3.68635e-10 1.26543e-07 0.702943)
(5.81892e-09 1.46437e-07 0.702941)
(1.42406e-08 9.36164e-08 0.704959)
(2.10281e-08 1.22759e-07 0.708023)
(3.72357e-08 1.5507e-07 0.710978)
(5.14662e-08 1.58694e-07 0.712772)
(6.37602e-08 1.65451e-07 0.712453)
(6.39544e-08 1.38779e-07 0.709167)
(3.03361e-08 1.44068e-07 0.702161)
(4.20675e-08 1.43209e-07 0.690751)
(7.06623e-08 9.45835e-08 0.674371)
(6.53401e-08 7.79622e-08 0.652864)
(2.33518e-08 4.89649e-08 0.627118)
(-1.52035e-08 1.75273e-08 0.196054)
(-1.98526e-08 2.46136e-08 0.20411)
(-1.89565e-08 2.7224e-08 0.210838)
(-7.27825e-09 1.28313e-08 0.215961)
(-6.674e-09 1.39744e-08 0.219529)
(-1.29071e-08 3.02722e-08 0.22172)
(-1.48928e-08 4.02692e-08 0.222746)
(-1.51426e-08 5.16136e-08 0.222844)
(-7.48915e-09 3.28493e-08 0.222282)
(-3.57441e-09 2.40632e-08 0.221356)
(-3.01633e-09 3.18915e-08 0.220397)
(-3.96033e-10 3.79575e-08 0.219765)
(1.58239e-09 4.43358e-08 0.219764)
(3.54937e-09 2.55104e-08 0.220396)
(6.08167e-09 3.55719e-08 0.221354)
(1.13204e-08 4.71987e-08 0.222279)
(1.52683e-08 4.82247e-08 0.22284)
(1.96116e-08 5.13066e-08 0.22274)
(1.94505e-08 4.23837e-08 0.221712)
(-3.55735e-09 5.11633e-08 0.21952)
(1.23388e-09 5.27144e-08 0.21595)
(2.21515e-08 2.98742e-08 0.210825)
(2.08433e-08 2.52287e-08 0.204096)
(8.83685e-09 1.51934e-08 0.196041)
(3.13143e-06 3.34793e-06 9.69351)
(2.85899e-06 2.98635e-06 9.49275)
(2.51681e-06 2.8018e-06 9.27729)
(2.05244e-06 2.33453e-06 9.05336)
(1.68617e-06 2.05337e-06 8.82416)
(1.33946e-06 1.76609e-06 8.59137)
(9.53763e-07 1.46354e-06 8.35568)
(6.24766e-07 1.25276e-06 8.11713)
(3.58378e-07 1.08688e-06 7.87533)
(1.25137e-07 9.53258e-07 7.62947)
(-6.56041e-08 8.84042e-07 7.37841)
(-2.16105e-07 8.61772e-07 7.12062)
(-3.31233e-07 8.56375e-07 6.85413)
(-4.09952e-07 8.69084e-07 6.57639)
(-4.88156e-07 8.59973e-07 6.2841)
(-5.49801e-07 8.4268e-07 5.97289)
(-5.95018e-07 8.1343e-07 5.63693)
(-6.07304e-07 7.84229e-07 5.26661)
(-5.87882e-07 7.52367e-07 4.84852)
(-5.57586e-07 6.92318e-07 4.36847)
(-5.09795e-07 6.06108e-07 3.81301)
(-4.392e-07 5.00167e-07 3.16973)
(-3.49936e-07 3.82822e-07 2.4571)
(-2.5677e-07 2.68238e-07 1.7579)
(-1.69364e-07 1.70299e-07 1.14377)
(-9.21736e-08 9.0371e-08 0.62716)
(-2.77618e-08 2.67587e-08 0.196054)
(2.55638e-06 3.33993e-06 9.74427)
(2.80816e-06 3.74055e-06 9.54209)
(2.40781e-06 3.13298e-06 9.32774)
(1.95093e-06 2.6457e-06 9.10485)
(1.57932e-06 2.17947e-06 8.87645)
(1.18978e-06 1.7903e-06 8.6443)
(7.80717e-07 1.50632e-06 8.4092)
(4.21521e-07 1.27318e-06 8.1713)
(1.47375e-07 1.08587e-06 7.93024)
(-7.50513e-08 9.75077e-07 7.68529)
(-2.46897e-07 9.26481e-07 7.43533)
(-3.85297e-07 9.19275e-07 7.17888)
(-5.26046e-07 8.96614e-07 6.91401)
(-6.33739e-07 8.77325e-07 6.63825)
(-7.09623e-07 8.61863e-07 6.34836)
(-7.54824e-07 8.52685e-07 6.0401)
(-7.81888e-07 8.3101e-07 5.70778)
(-7.87883e-07 7.96827e-07 5.34229)
(-7.68887e-07 7.53175e-07 4.93046)
(-7.4866e-07 6.66597e-07 4.45727)
(-7.10582e-07 5.51195e-07 3.90772)
(-6.11453e-07 4.57775e-07 3.26737)
(-4.69801e-07 3.75384e-07 2.54797)
(-3.35123e-07 2.76552e-07 1.82854)
(-2.17646e-07 1.80821e-07 1.19061)
(-1.17529e-07 9.77119e-08 0.652907)
(-3.52235e-08 2.93099e-08 0.20411)
(1.96846e-06 3.59614e-06 9.78256)
(2.34629e-06 3.92407e-06 9.58166)
(1.82177e-06 3.08127e-06 9.36825)
(1.60161e-06 2.66358e-06 9.1462)
(1.37186e-06 2.29265e-06 8.91847)
(1.05984e-06 1.85169e-06 8.68688)
(7.19699e-07 1.54314e-06 8.4523)
(3.66978e-07 1.26093e-06 8.21494)
(8.93832e-08 1.0986e-06 7.97448)
(-1.49017e-07 9.7229e-07 7.73021)
(-3.19791e-07 9.06893e-07 7.48106)
(-4.54099e-07 8.85984e-07 7.22558)
(-5.60009e-07 8.84941e-07 6.9619)
(-6.53729e-07 8.60882e-07 6.68759)
(-7.20094e-07 8.38669e-07 6.3995)
(-7.52345e-07 8.34297e-07 6.09347)
(-7.71524e-07 8.14161e-07 5.76392)
(-7.76555e-07 7.8076e-07 5.40218)
(-7.58257e-07 7.394e-07 4.99527)
(-7.33812e-07 6.60668e-07 4.52762)
(-7.02929e-07 5.4219e-07 3.98317)
(-6.20502e-07 4.40872e-07 3.34602)
(-4.85628e-07 3.6202e-07 2.62249)
(-3.51151e-07 2.65574e-07 1.88729)
(-2.30043e-07 1.71828e-07 1.22971)
(-1.24366e-07 9.18698e-08 0.674413)
(-3.69968e-08 2.71362e-08 0.210838)
(1.81928e-06 4.0416e-06 9.80973)
(2.01909e-06 3.885e-06 9.61068)
(1.69176e-06 3.49219e-06 9.39824)
(1.3894e-06 2.76721e-06 9.17685)
(1.166e-06 2.31358e-06 8.94964)
(8.99104e-07 1.93346e-06 8.71847)
(6.43909e-07 1.64195e-06 8.48427)
(3.23226e-07 1.31758e-06 8.24728)
(3.95083e-08 1.15182e-06 8.00722)
(-2.54058e-07 1.00059e-06 7.76341)
(-4.75477e-07 9.4572e-07 7.51481)
(-6.44593e-07 9.17646e-07 7.26)
(-7.77396e-07 8.82319e-07 6.99715)
(-8.81737e-07 8.47141e-07 6.72386)
(-9.46235e-07 8.34151e-07 6.43703)
(-9.86492e-07 8.15598e-07 6.13259)
(-1.00003e-06 8.03939e-07 5.80502)
(-9.97686e-07 7.80179e-07 5.44597)
(-9.90084e-07 7.16703e-07 5.04263)
(-9.50185e-07 6.55309e-07 4.57908)
(-8.69593e-07 6.02233e-07 4.03856)
(-7.6246e-07 5.24489e-07 3.4042)
(-6.24184e-07 4.23854e-07 2.67835)
(-4.68019e-07 3.11489e-07 1.93184)
(-3.15542e-07 2.0557e-07 1.25947)
(-1.77419e-07 1.13645e-07 0.69079)
(-5.6463e-08 3.56305e-08 0.215962)
(1.8318e-06 4.15353e-06 9.8279)
(1.5157e-06 3.51311e-06 9.63034)
(1.47357e-06 3.19276e-06 9.41869)
(1.38178e-06 2.97128e-06 9.19781)
(1.05064e-06 2.48816e-06 8.97096)
(7.38576e-07 2.11152e-06 8.74008)
(5.63424e-07 1.86814e-06 8.50613)
(2.453e-07 1.48654e-06 8.26938)
(-2.17569e-08 1.37362e-06 8.02958)
(-3.18821e-07 1.21552e-06 7.78606)
(-5.16511e-07 1.15321e-06 7.53781)
(-6.6798e-07 1.07497e-06 7.28344)
(-7.92426e-07 1.00629e-06 7.02111)
(-8.99535e-07 9.46972e-07 6.74849)
(-9.95179e-07 8.70229e-07 6.46251)
(-1.06282e-06 8.08655e-07 6.15911)
(-1.09656e-06 7.6996e-07 5.83286)
(-1.1066e-06 7.31428e-07 5.4756)
(-1.09352e-06 6.92275e-07 5.07467)
(-1.04691e-06 6.584e-07 4.6139)
(-9.76152e-07 5.94867e-07 4.07613)
(-8.72243e-07 5.07548e-07 3.44386)
(-7.24666e-07 4.07356e-07 2.71679)
(-5.47804e-07 3.01112e-07 1.96277)
(-3.70598e-07 2.01422e-07 1.28019)
(-2.09325e-07 1.13155e-07 0.702196)
(-6.72004e-08 3.6341e-08 0.219531)
(1.39789e-06 3.76091e-06 9.83885)
(1.66382e-06 4.10087e-06 9.64223)
(1.56282e-06 3.72743e-06 9.43111)
(1.18636e-06 3.13676e-06 9.21056)
(9.71528e-07 2.74474e-06 8.98394)
(6.68908e-07 2.29318e-06 8.75322)
(3.93863e-07 1.93735e-06 8.51942)
(8.31811e-08 1.5761e-06 8.2828)
(-1.80423e-07 1.41045e-06 8.04314)
(-4.05743e-07 1.19385e-06 7.79979)
(-5.62654e-07 1.04502e-06 7.55175)
(-7.07032e-07 8.9614e-07 7.29762)
(-8.07036e-07 8.33857e-07 7.03562)
(-9.07449e-07 7.55972e-07 6.76339)
(-9.86153e-07 6.97836e-07 6.4779)
(-1.03702e-06 6.66487e-07 6.17512)
(-1.0659e-06 6.38843e-07 5.84966)
(-1.06815e-06 6.04856e-07 5.49348)
(-1.04058e-06 5.69334e-07 5.09398)
(-9.96332e-07 4.9128e-07 4.6349)
(-9.08295e-07 4.21763e-07 4.09882)
(-7.69825e-07 3.6879e-07 3.46788)
(-6.03776e-07 2.94728e-07 2.74021)
(-4.29951e-07 2.11793e-07 1.98172)
(-2.75028e-07 1.34399e-07 1.29291)
(-1.46725e-07 7.03165e-08 0.709201)
(-4.35781e-08 2.07262e-08 0.221723)
(1.60507e-06 4.71475e-06 9.84401)
(1.21705e-06 3.81952e-06 9.64781)
(1.20872e-06 3.62529e-06 9.43693)
(1.06694e-06 3.391e-06 9.21653)
(7.89366e-07 2.74599e-06 8.99001)
(5.02828e-07 2.26424e-06 8.75937)
(2.55604e-07 2.0003e-06 8.52563)
(-1.18802e-08 1.66831e-06 8.28907)
(-2.09939e-07 1.38914e-06 8.04947)
(-3.81261e-07 1.17541e-06 7.80619)
(-5.87409e-07 9.85372e-07 7.55823)
(-7.72296e-07 8.6383e-07 7.30422)
(-8.96551e-07 8.36375e-07 7.04235)
(-9.96196e-07 8.187e-07 6.7703)
(-1.06249e-06 8.05891e-07 6.48504)
(-1.1014e-06 7.93942e-07 6.18255)
(-1.12264e-06 7.45912e-07 5.85744)
(-1.12105e-06 6.78463e-07 5.50175)
(-1.08416e-06 6.16541e-07 5.10292)
(-1.021e-06 5.27781e-07 4.64463)
(-9.33696e-07 4.06329e-07 4.10933)
(-7.97756e-07 3.08745e-07 3.47903)
(-6.16951e-07 2.41095e-07 2.75111)
(-4.34549e-07 1.62032e-07 1.99058)
(-2.73165e-07 9.849e-08 1.29887)
(-1.42364e-07 5.13463e-08 0.712481)
(-4.12275e-08 1.49202e-08 0.222749)
(1.17679e-06 4.39226e-06 9.84464)
(1.06588e-06 4.43436e-06 9.64847)
(9.07108e-07 3.77234e-06 9.43759)
(8.75825e-07 3.3289e-06 9.21718)
(6.41714e-07 2.84744e-06 8.99065)
(3.36765e-07 2.25921e-06 8.76001)
(6.99621e-08 1.81702e-06 8.52627)
(-1.3205e-07 1.49505e-06 8.2897)
(-2.70923e-07 1.23308e-06 8.0501)
(-4.44532e-07 1.00562e-06 7.80682)
(-5.85005e-07 9.15117e-07 7.55886)
(-7.36672e-07 7.96065e-07 7.30486)
(-8.78599e-07 6.84123e-07 7.043)
(-9.86524e-07 5.96773e-07 6.77096)