/*--------------------------------*- C++ -*----------------------------------*\
| =========                 |                                                 |
| \\      /  F ield         | OpenFOAM: The Open Source CFD Toolbox           |
|  \\    /   O peration     | Version:  2512                                  |
|   \\  /    A nd           | Website:  www.openfoam.com                      |
|    \\/     M anipulation  |                                                 |
\*---------------------------------------------------------------------------*/
FoamFile
{
    version     2.0;
    format      ascii;
    arch        "LSB;label=32;scalar=64";
    note        "face data";
    class       scalarField;
    location    "/home/khoi/Desktop/PressureStraight/MeshIndependenceStudy/Fine/postProcessing/outletSample/outlet/602";
    object      k;
}
// * * * * * * * * * * * * * * * * * * * * * * * * * * * * * * * * * * * * * //


3168
(
0.424575
0.415694
0.40875
0.40371
0.400275
0.398169
0.397166
0.397017
0.39748
0.398283
0.399131
0.399692
0.39968
0.399115
0.398253
0.397438
0.396956
0.397091
0.398074
0.400159
0.403572
0.408601
0.415532
0.424405
0.456251
0.448699
0.442634
0.438092
0.434945
0.432999
0.432047
0.431894
0.43231
0.433051
0.433829
0.434353
0.434346
0.43382
0.433028
0.432274
0.431848
0.431983
0.432916
0.434843
0.437974
0.442497
0.448555
0.4561
0.485372
0.478495
0.473072
0.469029
0.466219
0.464463
0.463603
0.463452
0.46382
0.464482
0.465182
0.465652
0.465647
0.465171
0.46446
0.463792
0.463411
0.463548
0.464392
0.46613
0.468924
0.472947
0.47836
0.485232
0.510797
0.504603
0.499736
0.496123
0.49361
0.49204
0.491261
0.491119
0.491438
0.492017
0.492637
0.493049
0.493047
0.492626
0.492
0.491411
0.491084
0.491213
0.491977
0.493529
0.496024
0.499623
0.504478
0.510668
0.532404
0.526884
0.522539
0.519315
0.517074
0.515672
0.514973
0.514838
0.515111
0.515617
0.516157
0.516518
0.516516
0.516149
0.515602
0.515089
0.514807
0.514931
0.515615
0.517001
0.519225
0.522434
0.526768
0.532284
0.550405
0.545514
0.54166
0.538798
0.536811
0.535568
0.534947
0.534822
0.535056
0.535494
0.535962
0.536275
0.536273
0.535955
0.53548
0.535036
0.534794
0.534908
0.535515
0.536743
0.538715
0.541563
0.545407
0.550295
0.565102
0.560785
0.557388
0.554869
0.553123
0.552033
0.551488
0.551377
0.551577
0.551954
0.552357
0.552626
0.552624
0.552349
0.55194
0.551558
0.55135
0.551453
0.551984
0.55306
0.554791
0.557298
0.560686
0.565001
0.576782
0.57299
0.570024
0.567833
0.56632
0.565379
0.564908
0.564811
0.564981
0.565302
0.565645
0.565875
0.565872
0.565637
0.565289
0.564962
0.564786
0.564875
0.565332
0.566261
0.56776
0.56994
0.572898
0.576689
0.585675
0.582374
0.579825
0.577953
0.576668
0.575871
0.575472
0.575389
0.575531
0.5758
0.576086
0.576279
0.576276
0.576078
0.575787
0.575513
0.575365
0.575441
0.575826
0.576612
0.577884
0.579746
0.582289
0.585589
0.591931
0.58911
0.586974
0.585419
0.584359
0.583704
0.583374
0.583305
0.58342
0.583638
0.583869
0.584027
0.584024
0.583862
0.583625
0.583403
0.583282
0.583345
0.58366
0.584306
0.585354
0.5869
0.58903
0.591851
0.595605
0.593276
0.591565
0.590332
0.589499
0.588985
0.588725
0.588668
0.588754
0.588922
0.589098
0.58922
0.589217
0.589091
0.588909
0.588738
0.588646
0.588697
0.588942
0.589448
0.590271
0.591495
0.593202
0.59553
0.596636
0.59484
0.593579
0.592685
0.592085
0.591716
0.591526
0.591482
0.591539
0.591653
0.591773
0.591857
0.591853
0.591765
0.59164
0.591523
0.591461
0.5915
0.591676
0.592038
0.592627
0.593513
0.59477
0.596565
0.594817
0.593626
0.592863
0.592335
0.591988
0.591773
0.591657
0.591624
0.591648
0.591704
0.591762
0.591805
0.591801
0.591755
0.591692
0.591632
0.591604
0.591632
0.591734
0.591943
0.592281
0.592801
0.59356
0.59475
0.589747
0.589272
0.589081
0.588969
0.588904
0.58886
0.588825
0.588804
0.58879
0.588779
0.588768
0.588764
0.58876
0.58876
0.588768
0.588775
0.588785
0.588802
0.588823
0.588861
0.588918
0.589022
0.589209
0.589684
0.580754
0.581156
0.58165
0.582031
0.582295
0.582451
0.58251
0.582502
0.582441
0.582351
0.582257
0.582198
0.582194
0.58225
0.58234
0.582427
0.582483
0.582488
0.582416
0.582256
0.581982
0.581595
0.581097
0.580695
0.566774
0.568287
0.56963
0.570617
0.571286
0.571684
0.571857
0.571862
0.571743
0.571556
0.571359
0.571233
0.571229
0.571353
0.571546
0.57173
0.571844
0.571835
0.57165
0.571248
0.570571
0.569579
0.56823
0.566718
0.546168
0.549121
0.551554
0.553314
0.554495
0.555198
0.555514
0.555535
0.555343
0.555031
0.554704
0.55449
0.554486
0.554697
0.555021
0.555329
0.555519
0.555494
0.555167
0.554459
0.55327
0.551506
0.549068
0.546115
0.515681
0.520698
0.524689
0.527552
0.529463
0.530601
0.531119
0.531161
0.530862
0.530371
0.529858
0.529519
0.529515
0.529851
0.530362
0.530849
0.531146
0.5311
0.530573
0.529429
0.52751
0.524642
0.520647
0.515631
0.470633
0.478441
0.484564
0.488949
0.49187
0.493611
0.494407
0.494477
0.494029
0.493289
0.492516
0.492004
0.491999
0.49251
0.493281
0.494017
0.494464
0.49439
0.493584
0.491838
0.488908
0.484519
0.478393
0.470585
0.404999
0.416238
0.425057
0.431404
0.435645
0.438178
0.439341
0.439448
0.438801
0.437732
0.436616
0.435876
0.435872
0.43661
0.437725
0.438791
0.439436
0.439325
0.438153
0.435614
0.431366
0.425015
0.416194
0.404954
0.313914
0.328328
0.339817
0.348197
0.353846
0.357242
0.358807
0.358954
0.35809
0.356661
0.355171
0.354183
0.35418
0.355166
0.356654
0.35808
0.358943
0.358792
0.357219
0.353819
0.348162
0.33978
0.328289
0.313874
0.198268
0.213796
0.226598
0.236177
0.242749
0.246741
0.248595
0.248771
0.247751
0.246068
0.244319
0.243162
0.24316
0.244315
0.246062
0.247743
0.248761
0.248582
0.246722
0.242726
0.236149
0.226567
0.213765
0.198237
0.0896108
0.0998977
0.108872
0.115897
0.120874
0.123963
0.125415
0.125554
0.124755
0.123443
0.12209
0.1212
0.121198
0.122087
0.12344
0.12475
0.125548
0.125407
0.123951
0.120861
0.11588
0.108854
0.0998803
0.0895942
0.0276469
0.0313374
0.0346696
0.0373564
0.0393038
0.040531
0.041113
0.0411693
0.0408485
0.0403243
0.039786
0.0394336
0.0394332
0.0397852
0.0403232
0.0408469
0.041167
0.0411101
0.0405267
0.0392989
0.0373504
0.0346634
0.0313315
0.0276415
0.00571897
0.00650447
0.00721947
0.00780023
0.00822365
0.00849154
0.00861891
0.00863126
0.00856105
0.00844645
0.0083289
0.00825203
0.00825194
0.00832871
0.00844621
0.00856069
0.00863077
0.00861829
0.0084906
0.00822259
0.00779899
0.00721815
0.00650323
0.00571784
0.000767623
0.000865674
0.000954469
0.00102635
0.00107864
0.00111167
0.00112737
0.00112889
0.00112025
0.00110612
0.00109163
0.00108215
0.00108214
0.00109161
0.00110609
0.0011202
0.00112883
0.0011273
0.00111156
0.0010785
0.00102619
0.000954306
0.00086552
0.000767481
0.00113497
0.00123206
0.00131637
0.00138252
0.0014296
0.00145893
0.00147276
0.00147409
0.0014665
0.00145404
0.0014412
0.00143276
0.00143275
0.00144118
0.00145401
0.00146646
0.00147404
0.00147269
0.00145883
0.00142948
0.00138238
0.00131621
0.0012319
0.00113482
0.424573
0.456251
0.485373
0.510798
0.532403
0.550404
0.565101
0.576782
0.585675
0.591931
0.595605
0.596636
0.594817
0.589747
0.580755
0.566774
0.546168
0.515682
0.470634
0.405
0.313915
0.198268
0.0896111
0.027647
0.00571899
0.000767626
0.00113498
0.415698
0.448705
0.478499
0.504605
0.526885
0.545515
0.560785
0.57299
0.582375
0.58911
0.593276
0.59484
0.593625
0.58927
0.581155
0.568286
0.549121
0.520698
0.478441
0.416238
0.328329
0.213796
0.0998978
0.0313375
0.00650448
0.000865677
0.00123206
0.408772
0.442647
0.473081
0.499743
0.522546
0.541665
0.557393
0.570028
0.579828
0.586977
0.591567
0.593581
0.592865
0.589082
0.581651
0.569631
0.551556
0.52469
0.484566
0.425059
0.339819
0.226599
0.108872
0.0346697
0.0072195
0.000954474
0.00131637
0.403735
0.438115
0.469047
0.496137
0.519328
0.53881
0.554879
0.567842
0.577962
0.585427
0.59034
0.592691
0.592342
0.588975
0.582036
0.570622
0.553319
0.527557
0.488953
0.431408
0.3482
0.23618
0.115898
0.037357
0.00780037
0.00102636
0.00138254
0.400309
0.434973
0.466243
0.493633
0.517095
0.536829
0.55314
0.566336
0.576682
0.584372
0.589511
0.592096
0.591998
0.588913
0.582304
0.571295
0.554503
0.529471
0.491878
0.435652
0.353853
0.242754
0.120877
0.039305
0.00822391
0.00107867
0.00142963
0.398215
0.433032
0.464497
0.492069
0.515698
0.535592
0.552055
0.565399
0.575889
0.58372
0.589
0.59173
0.591785
0.588871
0.582461
0.571693
0.555208
0.530611
0.49362
0.438187
0.357249
0.246747
0.123967
0.0405324
0.00849185
0.00111171
0.00145896
0.397211
0.432093
0.463639
0.491296
0.515005
0.534975
0.551514
0.564931
0.575493
0.583395
0.588743
0.591544
0.591674
0.588841
0.582526
0.571871
0.555528
0.531132
0.49442
0.439354
0.358819
0.248604
0.125421
0.0411151
0.00861936
0.00112743
0.0014728
0.39707
0.431943
0.463497
0.491156
0.514872
0.534853
0.551405
0.564836
0.575412
0.583327
0.588688
0.591501
0.591642
0.588821
0.582518
0.571877
0.555549
0.531174
0.49449
0.43946
0.358965
0.24878
0.125559
0.0411711
0.00863164
0.00112894
0.00147415
0.397541
0.432362
0.463866
0.491478
0.515147
0.535088
0.551605
0.565006
0.575554
0.58344
0.588773
0.591556
0.591665
0.588805
0.582455
0.571757
0.555356
0.530875
0.494042
0.438814
0.358101
0.247761
0.124761
0.0408509
0.00856155
0.00112031
0.00146655
0.398351
0.433107
0.464532
0.492062
0.515655
0.535528
0.551984
0.56533
0.575825
0.583661
0.588943
0.591673
0.591723
0.588797
0.582368
0.571572
0.555046
0.530386
0.493304
0.437747
0.356674
0.246078
0.12345
0.0403266
0.00844694
0.00110618
0.00145409
0.399195
0.433891
0.465235
0.492683
0.516197
0.535998
0.552389
0.565675
0.576114
0.583896
0.589124
0.591797
0.591785
0.588789
0.582277
0.571379
0.554722
0.529875
0.492532
0.436631
0.355185
0.244331
0.122097
0.0397887
0.00832947
0.0010917
0.00144126
0.399757
0.434415
0.465706
0.493098
0.516561
0.536314
0.552662
0.565908
0.576311
0.584057
0.589249
0.591884
0.591831
0.588788
0.582221
0.571254
0.554509
0.529537
0.49202
0.435891
0.354197
0.243174
0.121207
0.0394363
0.0082526
0.00108222
0.00143283
0.399756
0.434414
0.465706
0.493098
0.516561
0.536313
0.552661
0.565907
0.576309
0.584055
0.589246
0.591881
0.591828
0.588786
0.582219
0.571252
0.554509
0.529537
0.492021
0.435892
0.354198
0.243175
0.121207
0.0394363
0.00825261
0.00108222
0.00143283
0.399195
0.433889
0.465236
0.492683
0.516198
0.535999
0.55239
0.565675
0.576114
0.583896
0.589123
0.591796
0.591784
0.588789
0.582277
0.571379
0.554722
0.529875
0.492532
0.436632
0.355185
0.24433
0.122097
0.0397887
0.00832948
0.0010917
0.00144127
0.39834
0.433106
0.46453
0.492059
0.515653
0.535526
0.551982
0.565327
0.575822
0.583658
0.58894
0.59167
0.59172
0.588795
0.582366
0.57157
0.555045
0.530385
0.493303
0.437746
0.356673
0.246078
0.12345
0.0403268
0.00844697
0.00110619
0.0014541
0.397535
0.432359
0.463861
0.491473
0.515143
0.535084
0.551601
0.565001
0.575549
0.583436
0.58877
0.591553
0.591661
0.588802
0.582453
0.571755
0.555354
0.530873
0.49404
0.438812
0.3581
0.247759
0.12476
0.0408506
0.0085615
0.0011203
0.00146655
0.397063
0.43193
0.463487
0.491147
0.514863
0.534844
0.551396
0.564828
0.575404
0.583319
0.58868
0.591493
0.591635
0.588814
0.582511
0.571871
0.555544
0.53117
0.494486
0.439457
0.358963
0.248778
0.125558
0.0411708
0.00863156
0.00112893
0.00147414
0.397198
0.432072
0.463623
0.491279
0.514988
0.53496
0.5515
0.564919
0.575482
0.583384
0.588734
0.591536
0.591666
0.588835
0.582519
0.571865
0.555522
0.531127
0.494414
0.439348
0.358814
0.2486
0.125418
0.0411141
0.00861915
0.0011274
0.00147279
0.398183
0.433008
0.464472
0.492045
0.515674
0.535568
0.552033
0.565377
0.575869
0.583701
0.588981
0.591713
0.59177
0.588857
0.582449
0.571682
0.555198
0.530602
0.493612
0.438179
0.357242
0.246742
0.123964
0.0405312
0.00849159
0.00111168
0.00145894
0.400272
0.434939
0.466209
0.493601
0.517063
0.536799
0.553111
0.566309
0.576657
0.584348
0.589488
0.592076
0.591979
0.588896
0.582288
0.57128
0.55449
0.529459
0.491866
0.435642
0.353844
0.242747
0.120873
0.0393033
0.00822355
0.00107862
0.00142959
0.403687
0.438072
0.469006
0.496096
0.519289
0.538773
0.554845
0.567811
0.577932
0.5854
0.590315
0.59267
0.592322
0.588957
0.582019
0.570607
0.553304
0.527543
0.48894
0.431395
0.34819
0.236171
0.115893
0.0373551
0.00779996
0.00102631
0.00138249
0.408717
0.442595
0.473031
0.499695
0.5225
0.541623
0.557354
0.569993
0.579796
0.586948
0.591541
0.593558
0.592843
0.589062
0.581633
0.569614
0.55154
0.524675
0.484551
0.425046
0.339807
0.226589
0.108867
0.0346678
0.0072191
0.000954423
0.00131632
0.415644
0.448652
0.478445
0.504551
0.526834
0.545468
0.560743
0.572952
0.58234
0.58908
0.59325
0.594816
0.593604
0.589251
0.581138
0.56827
0.549106
0.520684
0.478428
0.416226
0.328318
0.213787
0.0998928
0.0313357
0.00650411
0.000865629
0.00123201
0.424517
0.456196
0.485316
0.510742
0.53235
0.550355
0.565057
0.576742
0.585639
0.591899
0.595577
0.59661
0.594793
0.589725
0.580734
0.566755
0.54615
0.515665
0.470618
0.404985
0.313901
0.198258
0.0896056
0.0276452
0.00571861
0.000767577
0.00113492
0.424403
0.456097
0.485232
0.510668
0.532284
0.550294
0.565
0.576687
0.585587
0.591849
0.595528
0.596564
0.594749
0.589683
0.580694
0.566718
0.546115
0.515632
0.470586
0.404955
0.313875
0.198238
0.0895951
0.0276417
0.00571789
0.000767487
0.00113483
0.415532
0.448551
0.47836
0.504479
0.526769
0.545408
0.560686
0.572898
0.582289
0.589031
0.593203
0.594771
0.593561
0.589211
0.5811
0.568233
0.549071
0.520651
0.478397
0.416197
0.328292
0.213768
0.0998819
0.031332
0.00650333
0.000865534
0.00123192
0.408604
0.442499
0.472947
0.499622
0.522435
0.541563
0.557299
0.569941
0.579747
0.586902
0.591498
0.593517
0.592804
0.589025
0.581597
0.569581
0.551508
0.524645
0.484523
0.425019
0.339783
0.22657
0.108856
0.0346642
0.00721832
0.000954328
0.00131623
0.403573
0.437972
0.468918
0.496022
0.519221
0.538712
0.554788
0.567758
0.577883
0.585355
0.590273
0.592629
0.592284
0.588922
0.581986
0.570576
0.553276
0.527516
0.488915
0.431372
0.348169
0.236155
0.115883
0.0373517
0.00779924
0.00102623
0.00138242
0.400147
0.434835
0.466122
0.493521
0.516992
0.536734
0.553051
0.566253
0.576604
0.584299
0.589441
0.592031
0.591937
0.588857
0.582252
0.571247
0.55446
0.529432
0.491841
0.435618
0.353823
0.24273
0.120863
0.0392998
0.0082228
0.00107853
0.00142952
0.398068
0.432904
0.464379
0.491963
0.5156
0.5355
0.55197
0.565319
0.575813
0.583649
0.588932
0.591667
0.591728
0.588818
0.582413
0.571649
0.555167
0.530574
0.493587
0.438156
0.357222
0.246725
0.123954
0.0405277
0.00849083
0.00111159
0.00145887
0.397077
0.431966
0.46353
0.491194
0.514911
0.534888
0.551433
0.564856
0.575423
0.583329
0.588682
0.591488
0.591622
0.588794
0.582482
0.571832
0.555492
0.531099
0.49439
0.439326
0.358795
0.248585
0.125409
0.041111
0.00861849
0.00112732
0.00147273
0.396941
0.431827
0.463389
0.491059
0.514783
0.534769
0.551326
0.564763
0.575344
0.583264
0.58863
0.591448
0.591594
0.588777
0.582477
0.571841
0.555517
0.531146
0.494465
0.439438
0.358946
0.248765
0.12555
0.0411679
0.00863097
0.00112886
0.00147409
0.397408
0.432249
0.463765
0.491383
0.51506
0.535007
0.55153
0.564937
0.575489
0.583381
0.588719
0.591507
0.59162
0.588765
0.582419
0.571725
0.555328
0.53085
0.494019
0.438793
0.358082
0.247745
0.124752
0.0408475
0.00856084
0.00112022
0.0014665
0.398226
0.432994
0.464431
0.491967
0.515569
0.535448
0.55191
0.565261
0.575761
0.583602
0.588889
0.591624
0.591678
0.588757
0.582332
0.57154
0.555018
0.530361
0.493282
0.437727
0.356657
0.246065
0.123442
0.0403241
0.0084464
0.00110612
0.00145406
0.399078
0.433785
0.465135
0.492591
0.516113
0.535919
0.552316
0.565607
0.576052
0.583839
0.589073
0.59175
0.591743
0.588752
0.582244
0.571349
0.554697
0.529852
0.492512
0.436614
0.35517
0.244319
0.12209
0.0397862
0.00832895
0.00109164
0.00144123
0.399637
0.434309
0.465608
0.493007
0.516476
0.536235
0.552588
0.56584
0.576248
0.583999
0.589196
0.591836
0.591788
0.58875
0.582187
0.571224
0.554484
0.529515
0.492001
0.435874
0.354183
0.243163
0.1212
0.039434
0.00825212
0.00108216
0.0014328
0.399637
0.434305
0.465608
0.493006
0.516475
0.536234
0.552587
0.565838
0.576245
0.583997
0.589193
0.591833
0.591785
0.588748
0.582184
0.571221
0.554482
0.529512
0.491999
0.435872
0.354181
0.243162
0.1212
0.0394337
0.00825207
0.00108216
0.0014328
0.39907
0.433781
0.465133
0.492589
0.51611
0.535916
0.552312
0.565603
0.576048
0.583835
0.589068
0.591745
0.591738
0.588747
0.58224
0.571346
0.554693
0.529849
0.492509
0.436611
0.355167
0.244317
0.122089
0.0397859
0.00832889
0.00109163
0.00144122
0.398219
0.432988
0.464425
0.491965
0.515565
0.535444
0.551905
0.565256
0.575756
0.583597
0.588885
0.591619
0.591674
0.588753
0.582328
0.571537
0.555015
0.530358
0.493278
0.437724
0.356654
0.246063
0.123441
0.0403235
0.00844628
0.00110611
0.00145405
0.397406
0.432241
0.463755
0.491376
0.515053
0.535
0.551524
0.564932
0.575485
0.583378
0.588716
0.591505
0.591618
0.588764
0.582419
0.571725
0.555328
0.53085
0.49402
0.438795
0.358085
0.247747
0.124753
0.040848
0.00856095
0.00112024
0.00146651
0.396924
0.431811
0.463378
0.491048
0.514772
0.534759
0.551317
0.564755
0.575337
0.583258
0.588625
0.591443
0.59159
0.588774
0.582475
0.571839
0.555516
0.531145
0.494463
0.439436
0.358945
0.248764
0.12555
0.0411678
0.00863095
0.00112886
0.00147409
0.397056
0.43195
0.463515
0.491178
0.514896
0.534873
0.551418
0.564842
0.57541
0.583317
0.588672
0.591479
0.591614
0.588787
0.582476
0.571827
0.555488
0.531096
0.494387
0.439324
0.358792
0.248583
0.125408
0.0411106
0.00861842
0.00112732
0.00147273
0.398044
0.432883
0.464358
0.491942
0.515579
0.53548
0.55195
0.5653
0.575796
0.583632
0.588917
0.591653
0.591715
0.588807
0.582403
0.571641
0.55516
0.530567
0.49358
0.43815
0.357217
0.246722
0.123951
0.0405269
0.00849068
0.00111157
0.00145886
0.400123
0.434809
0.466092
0.493494
0.516965
0.536707
0.553025
0.566228
0.576581
0.584278
0.589422
0.592015
0.591922
0.588843
0.58224
0.571236
0.55445
0.529423
0.491833
0.435611
0.353817
0.242725
0.12086
0.0392988
0.00822258
0.00107851
0.00142951
0.403537
0.437934
0.468884
0.495986
0.519187
0.538677
0.554755
0.567727
0.577855
0.585328
0.590248
0.592607
0.592264
0.588903
0.581969
0.57056
0.553261
0.527504
0.488904
0.431363
0.34816
0.236148
0.115879
0.0373503
0.00779894
0.00102619
0.00138239
0.408566
0.442455
0.472905
0.49958
0.522393
0.541523
0.55726
0.569905
0.579714
0.58687
0.591469
0.59349
0.59278
0.589004
0.581578
0.569564
0.551492
0.524631
0.48451
0.425007
0.339773
0.226562
0.108851
0.0346625
0.00721797
0.000954286
0.0013162
0.415487
0.448505
0.478313
0.50443
0.52672
0.545361
0.560641
0.572856
0.582249
0.588994
0.593168
0.59474
0.593532
0.589184
0.581076
0.568212
0.549052
0.520633
0.478381
0.416182
0.328279
0.213758
0.0998764
0.0313302
0.00650294
0.000865487
0.00123188
0.424358
0.456046
0.48518
0.510615
0.532231
0.550243
0.564952
0.576642
0.585545
0.591811
0.595493
0.596531
0.594719
0.589656
0.58067
0.566695
0.546094
0.515612
0.470569
0.40494
0.313862
0.198229
0.0895899
0.02764
0.00571754
0.000767444
0.00113479
0.42452
0.456197
0.48532
0.510746
0.532354
0.550359
0.56506
0.576744
0.58564
0.591899
0.595576
0.596609
0.594792
0.589725
0.580734
0.566755
0.54615
0.515665
0.470618
0.404984
0.313901
0.198258
0.0896056
0.0276452
0.00571861
0.000767578
0.00113493
0.415644
0.448655
0.478449
0.504558
0.52684
0.545474
0.560748
0.572955
0.582343
0.589082
0.593252
0.594818
0.593606
0.589254
0.58114
0.568271
0.549107
0.520685
0.478429
0.416227
0.328319
0.213789
0.0998937
0.0313361
0.00650418
0.00086564
0.00123203
0.408713
0.442594
0.473033
0.499699
0.522502
0.541625
0.557356
0.569995
0.579798
0.58695
0.591543
0.593559
0.592845
0.589064
0.581635
0.569617
0.551543
0.524679
0.484555
0.42505
0.339811
0.226593
0.108869
0.0346685
0.00721925
0.000954444
0.00131635
0.403675
0.438062
0.468999
0.49609
0.519283
0.538767
0.55484
0.567806
0.577928
0.585397
0.590313
0.592668
0.592322
0.588958
0.58202
0.570608
0.553306
0.527546
0.488942
0.431398
0.348192
0.236174
0.115895
0.0373557
0.00780009
0.00102633
0.00138252
0.400247
0.434918
0.46619
0.493584
0.517046
0.536783
0.553096
0.566295
0.576644
0.584337
0.589478
0.592067
0.591971
0.588889
0.582283
0.571275
0.554486
0.529456
0.491865
0.43564
0.353843
0.242747
0.120873
0.0393035
0.00822359
0.00107863
0.00142961
0.398156
0.432978
0.464443
0.492016
0.515647
0.535544
0.55201
0.565357
0.57585
0.583683
0.588966
0.591699
0.591758
0.588847
0.58244
0.571675
0.555192
0.530597
0.493607
0.438175
0.357239
0.24674
0.123962
0.0405308
0.00849151
0.00111167
0.00145894
0.397152
0.432031
0.463582
0.491241
0.514951
0.534925
0.551468
0.56489
0.575456
0.583361
0.588713
0.591517
0.59165
0.58882
0.582506
0.571854
0.555513
0.531119
0.494408
0.439342
0.358809
0.248596
0.125416
0.0411134
0.00861899
0.00112738
0.00147278
0.397012
0.431883
0.463437
0.491098
0.514817
0.534801
0.551357
0.564793
0.575373
0.583292
0.588657
0.591473
0.591618
0.5888
0.582499
0.57186
0.555534
0.531161
0.494478
0.43945
0.358957
0.248773
0.125555
0.0411697
0.00863133
0.00112891
0.00147412
0.397477
0.432298
0.463804
0.491417
0.51509
0.535034
0.551556
0.564962
0.575513
0.583404
0.588741
0.591527
0.591639
0.588783
0.582436
0.57174
0.55534
0.530861
0.494029
0.438803
0.358091
0.247753
0.124757
0.0408492
0.00856119
0.00112027
0.00146653
0.398282
0.433038
0.464466
0.491997
0.515595
0.535472
0.551932
0.565282
0.575781
0.583622
0.588908
0.591641
0.591694
0.588772
0.582346
0.571552
0.555029
0.530371
0.49329
0.437735
0.356663
0.24607
0.123445
0.040325
0.00844658
0.00110614
0.00145407
0.399121
0.433823
0.465167
0.492616
0.516135
0.535939
0.552334
0.565624
0.576067
0.583853
0.589084
0.591761
0.591752
0.58876
0.582251
0.571355
0.554701
0.529856
0.492515
0.436616
0.355172
0.24432
0.122091
0.0397865
0.008329
0.00109164
0.00144122
0.39968
0.43434
0.465636
0.493029
0.516495
0.536251
0.552602
0.565853
0.576259
0.584009
0.589205
0.591844
0.591795
0.588756
0.582192
0.571228
0.554487
0.529517
0.492002
0.435876
0.354184
0.243164
0.121201
0.039434
0.00825212
0.00108216
0.00143279
0.399677
0.434338
0.46563
0.493026
0.516492
0.536248
0.5526
0.56585
0.576256
0.584007
0.589202
0.591841
0.591792
0.588753
0.582189
0.571225
0.554485
0.529515
0.492
0.435874
0.354183
0.243163
0.1212
0.0394339
0.0082521
0.00108216
0.00143278
0.399101
0.433807
0.465153
0.492606
0.516125
0.53593
0.552326
0.565617
0.57606
0.583847
0.589078
0.591755
0.591747
0.588755
0.582247
0.571351
0.554698
0.529853
0.492512
0.436613
0.355168
0.244317
0.122089
0.0397858
0.00832887
0.00109163
0.00144121
0.398246
0.433009
0.464442
0.491978
0.515578
0.535456
0.551918
0.565268
0.575768
0.583609
0.588895
0.591629
0.591683
0.588761
0.582336
0.571543
0.55502
0.530362
0.493281
0.437727
0.356656
0.246064
0.123441
0.0403236
0.0084463
0.00110611
0.00145404
0.397426
0.43226
0.463771
0.491389
0.515065
0.535012
0.551535
0.564942
0.575495
0.583386
0.588724
0.591512
0.591624
0.588768
0.582421
0.571726
0.555328
0.530849
0.494018
0.438792
0.358081
0.247745
0.124752
0.0408474
0.00856081
0.00112022
0.00146649
0.396946
0.431828
0.463392
0.491061
0.514784
0.53477
0.551328
0.564765
0.575347
0.583266
0.588633
0.59145
0.591595
0.588778
0.582478
0.571841
0.555516
0.531144
0.494463
0.439435
0.358943
0.248762
0.125549
0.0411673
0.00863085
0.00112885
0.00147407
0.397075
0.431968
0.463525
0.491191
0.514906
0.534883
0.551428
0.564852
0.575419
0.583325
0.588678
0.591484
0.591618
0.58879
0.582479
0.571828
0.555489
0.531096
0.494386
0.439322
0.358791
0.248581
0.125407
0.0411102
0.0086183
0.0011273
0.0014727
0.398059
0.432894
0.464368
0.491951
0.515589
0.535489
0.551959
0.565308
0.575804
0.58364
0.588924
0.59166
0.59172
0.588811
0.582406
0.571643
0.555162
0.530568
0.493581
0.43815
0.357217
0.246721
0.123951
0.0405266
0.0084906
0.00111156
0.00145884
0.400134
0.434815
0.4661
0.493502
0.516972
0.536714
0.553032
0.566235
0.576588
0.584283
0.589427
0.592018
0.591925
0.588845
0.582241
0.571236
0.554449
0.529421
0.491831
0.435609
0.353815
0.242723
0.120859
0.0392984
0.0082225
0.0010785
0.00142949
0.403544
0.43794
0.468886
0.49599
0.519191
0.538683
0.554761
0.567732
0.577859
0.585332
0.590252
0.59261
0.592266
0.588905
0.58197
0.570561
0.553262
0.527503
0.488902
0.43136
0.348158
0.236145
0.115878
0.0373498
0.00779885
0.00102618
0.00138238
0.408563
0.442457
0.472907
0.499581
0.522394
0.541525
0.557262
0.569907
0.579716
0.586872
0.59147
0.593491
0.59278
0.589003
0.581577
0.569562
0.551492
0.52463
0.484508
0.425006
0.339771
0.226561
0.10885
0.0346622
0.0072179
0.000954276
0.00131618
0.415487
0.448504
0.478311
0.50443
0.52672
0.545361
0.560642
0.572856
0.58225
0.588994
0.593168
0.594739
0.593532
0.589184
0.581074
0.56821
0.54905
0.52063
0.478378
0.416179
0.328277
0.213755
0.0998753
0.0313299
0.00650288
0.000865477
0.00123186
0.424355
0.456048
0.48518
0.510614
0.532231
0.550244
0.564953
0.576644
0.585547
0.591813
0.595495
0.596533
0.594722
0.589659
0.580672
0.566697
0.546096
0.515614
0.47057
0.40494
0.313862
0.198228
0.0895897
0.02764
0.00571753
0.000767443
0.00113479
0.402455
0.39302
0.385914
0.380372
0.376276
0.373479
0.37181
0.371065
0.371019
0.371427
0.371999
0.372415
0.372403
0.371974
0.371386
0.370971
0.370995
0.371722
0.373373
0.376153
0.380237
0.385768
0.392866
0.402285
0.393027
0.382806
0.374744
0.368356
0.363419
0.359741
0.357171
0.355538
0.354663
0.354347
0.354378
0.354491
0.35448
0.354352
0.354314
0.354611
0.355466
0.357079
0.359632
0.363292
0.368219
0.374597
0.382651
0.392869
0.385934
0.374759
0.365555
0.358155
0.352276
0.347708
0.344264
0.341805
0.340166
0.339186
0.338722
0.338561
0.338549
0.33869
0.339147
0.340098
0.341718
0.344166
0.34759
0.352143
0.358002
0.365393
0.374596
0.385773
0.380404
0.368383
0.358168
0.349749
0.342907
0.337418
0.333117
0.329861
0.327502
0.325913
0.324993
0.324581
0.324568
0.324953
0.325868
0.327427
0.329766
0.333011
0.337294
0.342759
0.349586
0.357998
0.368214
0.380239
0.376315
0.363454
0.35231
0.342925
0.335139
0.328753
0.323628
0.319603
0.316567
0.314419
0.31308
0.312446
0.312434
0.313045
0.314369
0.316489
0.3195
0.323507
0.328622
0.334983
0.342756
0.352136
0.363283
0.376146
0.373531
0.359792
0.347755
0.337459
0.328781
0.321554
0.315633
0.310895
0.307239
0.304587
0.302869
0.302026
0.302014
0.302825
0.304523
0.307153
0.310786
0.315505
0.321408
0.328619
0.337287
0.347579
0.35962
0.373365
0.37187
0.357234
0.344327
0.333175
0.323664
0.315651
0.309004
0.303612
0.299392
0.296281
0.294235
0.293217
0.293199
0.294182
0.296216
0.299304
0.303502
0.308873
0.315502
0.3235
0.333001
0.344152
0.357063
0.371712
0.371135
0.355612
0.341873
0.329925
0.319655
0.31093
0.303631
0.297657
0.292936
0.289421
0.287085
0.285916
0.285902
0.287045
0.289357
0.292848
0.297546
0.303499
0.310781
0.319491
0.329752
0.341699
0.355443
0.370978
0.371097
0.354745
0.340244
0.327579
0.316638
0.307293
0.299429
0.292955
0.287806
0.283948
0.281368
0.280067
0.280054
0.28133
0.283885
0.287719
0.292844
0.299296
0.307143
0.316473
0.327405
0.34007
0.354579
0.370937
0.371503
0.354431
0.339282
0.326012
0.314515
0.304659
0.296336
0.289458
0.283967
0.279835
0.277058
0.275639
0.275627
0.27702
0.279771
0.283878
0.289339
0.296191
0.3045
0.314344
0.325838
0.339111
0.354275
0.371351
0.372072
0.35446
0.338818
0.325097
0.313187
0.302962
0.294305
0.287139
0.281405
0.277078
0.274165
0.272686
0.272673
0.274123
0.276999
0.281305
0.287017
0.294166
0.302804
0.313017
0.32492
0.338648
0.354309
0.371928
0.372494
0.354579
0.338666
0.324699
0.312564
0.302133
0.293292
0.285985
0.280122
0.275692
0.272707
0.271189
0.271179
0.272667
0.275616
0.280023
0.285867
0.29317
0.301985
0.312398
0.324523
0.338495
0.354428
0.372358
0.372496
0.354578
0.338666
0.324697
0.312562
0.302132
0.293292
0.285986
0.280121
0.275678
0.2727
0.271177
0.271182
0.272669
0.275621
0.280026
0.285869
0.293171
0.301985
0.312398
0.324524
0.338492
0.354421
0.372354
0.372076
0.354464
0.338816
0.32509
0.313182
0.302956
0.294306
0.287143
0.281407
0.277069
0.274158
0.272697
0.272685
0.274125
0.277013
0.281314
0.287026
0.294172
0.302807
0.313019
0.324921
0.338642
0.354299
0.371926
0.3715
0.354432
0.339272
0.325991
0.3145
0.304641
0.296335
0.289463
0.283975
0.279837
0.277068
0.27567
0.27565
0.277027
0.279775
0.283881
0.289347
0.296201
0.304503
0.314342
0.325832
0.339103
0.354267
0.371347
0.371086
0.354734
0.340221
0.327553
0.316614
0.307282
0.299428
0.292961
0.287817
0.283948
0.28138
0.28009
0.280082
0.281352
0.283893
0.287724
0.292845
0.299294
0.307136
0.316464
0.327395
0.34006
0.354569
0.370931
0.37112
0.355595
0.341846
0.329895
0.319627
0.310909
0.303629
0.297664
0.292947
0.289424
0.287094
0.28594
0.285933
0.287074
0.289373
0.292855
0.297548
0.303496
0.310773
0.319479
0.329737
0.341685
0.355429
0.370963
0.371852
0.357213
0.344303
0.333149
0.323642
0.315639
0.309002
0.303618
0.299403
0.296286
0.294253
0.293247
0.293235
0.294212
0.296229
0.299313
0.303506
0.308872
0.315496
0.323489
0.332986
0.344135
0.357046
0.371694
0.373503
0.359765
0.347726
0.337432
0.328759
0.321543
0.31563
0.310899
0.30725
0.304603
0.302885
0.302053
0.302052
0.302857
0.304536
0.307161
0.310789
0.315503
0.321401
0.328606
0.33727
0.34756
0.359601
0.373346
0.376278
0.363418
0.352275
0.342893
0.335115
0.328749
0.323624
0.319604
0.316579
0.314447
0.313111
0.312478
0.312468
0.313073
0.314378
0.316492
0.3195
0.323502
0.328612
0.334968
0.342737
0.352114
0.36326
0.376124
0.380362
0.368344
0.35813
0.349715
0.342881
0.337405
0.333116
0.329858
0.327505
0.325933
0.325009
0.32459
0.32458
0.324975
0.325872
0.327425
0.329761
0.333003
0.33728
0.342741
0.349564
0.357975
0.368188
0.38021
0.385892
0.37472
0.36552
0.358123
0.352257
0.347692
0.344259
0.3418
0.340164
0.339197
0.338724
0.338555
0.338554
0.338697
0.339143
0.34009
0.34171
0.344154
0.347573
0.352122
0.357979
0.36537
0.374569
0.385743
0.392987
0.38277
0.374716
0.368333
0.363398
0.359728
0.357163
0.355536
0.354666
0.354354
0.354373
0.354479
0.35447
0.354347
0.354304
0.354598
0.355454
0.357066
0.359615
0.363269
0.368197
0.374573
0.382624
0.392839
0.402407
0.392985
0.385888
0.38035
0.376255
0.373465
0.3718
0.371061
0.37102
0.371426
0.371991
0.372403
0.372395
0.371967
0.371381
0.370959
0.370988
0.371713
0.373361
0.376136
0.38022
0.385745
0.39284
0.402256
)


// ************************************************************************* //
