/*--------------------------------*- C++ -*----------------------------------*\
| =========                 |                                                 |
| \\      /  F ield         | OpenFOAM: The Open Source CFD Toolbox           |
|  \\    /   O peration     | Version:  2512                                  |
|   \\  /    A nd           | Website:  www.openfoam.com                      |
|    \\/     M anipulation  |                                                 |
\*---------------------------------------------------------------------------*/
FoamFile
{
    version     2.0;
    format      ascii;
    arch        "LSB;label=32;scalar=64";
    note        "face data";
    class       scalarField;
    location    "/home/khoi/Desktop/PressureStraight/MeshIndependenceStudy/Fine/postProcessing/outletSample/outlet/";
    object      epsilon;
}
// * * * * * * * * * * * * * * * * * * * * * * * * * * * * * * * * * * * * * //


3168
(
7.31457
6.72556
6.29747
6.00305
5.81303
5.70278
5.65438
5.6528
5.684
5.73226
5.78316
5.81665
5.81679
5.78433
5.73259
5.68362
5.65372
5.65568
5.7045
5.81527
6.00583
6.30039
6.73124
7.3202
9.8163
9.15319
8.65114
8.2961
8.06102
7.92356
7.86045
7.85634
7.89348
7.95401
8.01578
8.05611
8.0568
8.01515
7.95406
7.89383
7.85791
7.86169
7.92523
8.0634
8.29947
8.65575
9.15837
9.82249
12.9124
12.1093
11.5074
11.0803
10.7982
10.6299
10.5538
10.547
10.5911
10.6622
10.7371
10.7862
10.7866
10.7367
10.6624
10.5914
10.5475
10.5546
10.6312
10.8002
11.0833
11.5099
12.1131
12.9167
16.6482
15.6746
14.9449
14.4295
14.0876
13.8844
13.7905
13.7821
13.8335
13.9191
14.0082
14.0677
14.0676
14.0085
13.9193
13.8336
13.7824
13.7911
13.8852
14.0889
14.4305
14.9467
15.6764
16.6504
21.1355
19.9552
19.0703
18.4451
18.0308
17.7839
17.6699
17.6584
17.7199
17.8223
17.9295
18.0007
18.0008
17.9294
17.8223
17.7198
17.6584
17.67
17.784
18.0309
18.4452
19.0705
19.9554
21.1355
26.5379
25.1054
24.0307
23.2715
22.7685
22.4688
22.3301
22.3154
22.3891
22.5127
22.6418
22.7279
22.7278
22.6417
22.5124
22.3889
22.3153
22.3298
22.4681
22.7676
23.2704
24.0295
25.1038
26.5359
33.0735
31.3306
30.0234
29.1
28.4886
28.1247
27.956
27.9385
28.0275
28.1766
28.3328
28.4373
28.4373
28.333
28.1759
28.0272
27.9378
27.9554
28.1231
28.487
29.0977
30.0207
31.3271
33.0698
41.0251
38.8983
37.3042
36.18
35.4354
34.9927
34.7887
34.7668
34.875
35.056
35.2462
35.3729
35.373
35.2462
35.0555
34.8746
34.7658
34.7871
34.9913
35.4334
36.1762
37.3004
38.8935
41.0199
50.7554
48.1521
46.2051
44.8321
43.9246
43.3845
43.1358
43.1094
43.2412
43.463
43.6951
43.8494
43.849
43.6943
43.4624
43.2408
43.1076
43.1337
43.3821
43.9211
44.8277
46.2003
48.1459
50.749
62.7331
59.5376
57.1521
55.4701
54.3605
53.7012
53.3962
53.3642
53.5259
53.797
54.0816
54.2707
54.2699
54.0804
53.7969
53.5254
53.3631
53.3936
53.6966
54.3561
55.4645
57.1455
59.5296
62.7241
77.5614
73.6299
70.698
68.6332
67.2704
66.4612
66.0869
66.0493
66.2481
66.5818
66.9304
67.1628
67.1619
66.9296
66.5803
66.2473
66.0468
66.0838
66.4563
67.2646
68.6261
70.6902
73.6196
77.551
96.0311
91.1802
87.5669
85.0218
83.343
82.3457
81.8854
81.8389
82.0842
82.4957
82.9257
83.2128
83.2118
82.9246
82.4944
82.083
81.836
81.8813
82.3391
83.3358
85.0135
87.5576
91.1684
96.0186
119.173
113.175
108.708
105.56
103.483
102.25
101.681
101.624
101.928
102.438
102.97
103.324
103.323
102.968
102.436
101.926
101.621
101.676
102.242
103.475
105.55
108.696
113.161
119.158
148.333
140.906
135.37
131.465
128.888
127.358
126.653
126.582
126.961
127.592
128.253
128.693
128.692
128.251
127.59
126.958
126.578
126.647
127.349
128.878
131.452
135.355
140.89
148.315
185.251
176.057
169.189
164.338
161.134
159.232
158.355
158.267
158.739
159.524
160.346
160.893
160.892
160.344
159.522
158.735
158.262
158.348
159.221
161.123
164.323
169.171
176.038
185.23
232.103
220.766
212.264
206.247
202.268
199.904
198.814
198.706
199.292
200.269
201.29
201.97
201.969
201.287
200.265
199.287
198.699
198.806
199.891
202.253
206.229
212.243
220.742
232.077
291.396
277.575
267.146
259.741
254.833
251.911
250.564
250.431
251.156
252.363
253.624
254.464
254.462
253.621
252.359
251.15
250.423
250.554
251.896
254.814
259.718
267.12
277.545
291.364
364.928
348.657
336.249
327.376
321.469
317.943
316.316
316.155
317.032
318.49
320.011
321.023
321.021
320.007
318.485
317.024
316.146
316.304
317.926
321.446
327.347
336.215
348.618
364.889
450.793
433.206
419.537
409.629
402.972
398.977
397.127
396.943
397.94
399.595
401.317
402.462
402.459
401.313
399.587
397.929
396.931
397.111
398.954
402.942
409.592
419.494
433.159
450.742
536.266
520.92
508.525
499.276
492.939
489.089
487.296
487.118
488.083
489.679
491.334
492.432
492.427
491.328
489.671
488.068
487.1
487.278
489.062
492.9
499.228
508.468
520.857
536.199
589.02
582.276
576.102
571.039
567.355
565.032
563.923
563.808
564.398
565.365
566.356
567.003
566.998
566.345
565.354
564.379
563.788
563.896
564.993
567.305
570.976
576.03
582.198
588.937
548.503
557.921
564.583
568.828
571.371
572.762
573.362
573.412
573.068
572.486
571.856
571.426
571.421
571.844
572.47
573.047
573.387
573.33
572.713
571.31
568.754
564.497
557.83
548.409
397.402
414.815
429.345
440.243
447.71
452.243
454.342
454.536
453.372
451.451
449.454
448.132
448.124
449.443
451.439
453.353
454.512
454.311
452.196
447.658
440.173
429.268
414.737
397.323
233.009
244.532
254.598
262.47
268.046
271.507
273.131
273.286
272.383
270.906
269.38
268.376
268.373
269.374
270.898
272.372
273.27
273.111
271.477
268.011
262.426
254.551
244.484
232.962
117.875
123.286
128.012
131.71
134.333
135.962
136.727
136.799
136.374
135.679
134.96
134.487
134.486
134.957
135.675
136.369
136.791
136.717
135.947
134.315
131.689
127.989
123.262
117.851
54.9856
56.9251
58.6237
59.9538
60.8972
61.4826
61.7577
61.7837
61.6312
61.3804
61.1217
60.9516
60.951
61.1206
61.3788
61.6284
61.7804
61.7538
61.4765
60.8893
59.9445
58.6137
56.915
54.9754
526.429
524.523
523.366
522.702
522.342
522.161
522.08
522.066
522.1
522.159
522.223
522.264
522.261
522.215
522.148
522.085
522.049
522.055
522.125
522.299
522.649
523.303
524.455
526.36
7.31469
9.81774
12.9127
16.6488
21.1357
26.5375
33.073
41.0245
50.7551
62.732
77.5614
96.0311
119.173
148.333
185.252
232.103
291.396
364.929
450.793
536.267
589.022
548.503
397.404
233.01
117.875
54.9858
526.434
6.726
9.15448
12.1103
15.6751
19.9556
25.1056
31.3307
38.8981
48.1519
59.5371
73.6293
91.1797
113.174
140.906
176.057
220.766
277.575
348.657
433.206
520.92
582.281
557.921
414.816
244.533
123.286
56.9253
524.523
6.29663
8.65219
11.5083
14.9458
19.0708
24.0311
30.0238
37.3049
46.2052
57.1519
70.6988
87.5682
108.709
135.37
169.189
212.265
267.148
336.25
419.539
508.524
576.105
564.585
429.345
254.599
128.013
58.624
523.366
6.00168
8.29642
11.0812
14.4301
18.4456
23.2718
29.1004
36.1803
44.8322
55.4709
68.6341
85.0237
105.562
131.467
164.34
206.249
259.743
327.379
409.633
499.281
571.044
568.835
440.247
262.474
131.713
59.9544
522.71
5.81157
8.06236
10.799
14.0882
18.0313
22.7689
28.489
35.4365
43.925
54.3617
67.2718
83.3445
103.485
128.89
161.137
202.272
254.836
321.474
402.979
492.947
567.366
571.383
447.722
268.054
134.337
60.8989
522.353
5.70183
7.92326
10.6306
13.885
17.7845
22.4691
28.1251
34.9941
43.3861
53.7021
66.4618
82.3472
102.251
127.36
159.234
199.907
251.916
317.95
398.985
489.103
565.043
572.778
452.259
271.517
135.967
61.4848
522.171
5.65242
7.86167
10.5544
13.7912
17.6706
22.3308
27.9569
34.7896
43.1369
53.3971
66.0889
81.8874
101.683
126.655
158.358
198.819
250.57
316.324
397.138
487.31
563.942
573.385
454.365
273.146
136.734
61.761
522.094
5.6518
7.85688
10.5482
13.7828
17.6591
22.3165
27.9395
34.7682
43.1108
53.3667
66.0515
81.8415
101.627
126.585
158.272
198.711
250.437
316.163
396.954
487.131
563.829
573.435
454.556
273.298
136.806
61.7865
522.087
5.68251
7.89466
10.5912
13.8344
17.7206
22.3902
28.0285
34.8759
43.2432
53.5278
66.2502
82.0876
101.931
126.964
158.743
199.297
251.163
317.041
397.951
488.097
564.418
573.093
453.395
272.4
136.382
61.6345
522.117
5.73299
7.9545
10.6634
13.9196
17.823
22.5135
28.1778
35.0579
43.4647
53.7997
66.5842
82.499
102.441
127.596
159.529
200.275
252.37
318.499
399.606
489.696
565.386
572.512
451.479
270.922
135.686
61.3838
522.177
5.78283
8.01548
10.7373
14.0088
17.9301
22.6427
28.3342
35.2478
43.6961
54.0835
66.9323
82.9285
102.973
128.257
160.351
201.297
253.632
320.022
401.331
491.355
566.379
571.886
449.482
269.399
134.969
61.1256
522.244
5.81658
8.0566
10.7869
14.0683
18.0014
22.7284
28.4383
35.3745
43.8512
54.273
67.1661
83.2161
103.329
128.699
160.9
201.977
254.473
321.036
402.477
492.453
567.028
571.459
448.16
268.395
134.497
60.9555
522.29
5.81718
8.05677
10.7873
14.0684
18.0014
22.7287
28.4383
35.3744
43.8504
54.2723
67.1657
83.2157
103.328
128.698
160.899
201.977
254.473
321.035
402.476
492.454
567.03
571.461
448.16
268.396
134.497
60.9555
522.29
5.78437
8.01638
10.7378
14.0088
17.9301
22.6426
28.334
35.2476
43.6958
54.0835
66.9322
82.9284
102.973
128.257
160.351
201.297
253.632
320.022
401.331
491.356
566.382
571.886
449.483
269.399
134.969
61.1256
522.248
5.73337
7.95366
10.6628
13.9197
17.8229
22.5134
28.1776
35.0571
43.4643
53.7989
66.5833
82.498
102.44
127.595
159.528
200.274
252.37
318.499
399.607
489.695
565.387
572.512
451.479
270.924
135.687
61.3843
522.18
5.68332
7.89426
10.5918
13.8341
17.7204
22.3899
28.0279
34.8761
43.243
53.5279
66.2499
82.0872
101.931
126.963
158.742
199.297
251.162
317.039
397.95
488.095
564.417
573.089
453.393
272.398
136.382
61.6339
522.117
5.65313
7.85812
10.548
13.7829
17.6591
22.3163
27.9392
34.7678
43.1104
53.3649
66.0495
81.8399
101.625
126.584
158.269
198.709
250.435
316.16
396.95
487.128
563.822
573.431
454.552
273.296
136.805
61.7859
522.084
5.65488
7.86187
10.555
13.7918
17.6706
22.3307
27.9567
34.789
43.1362
53.3966
66.0885
81.8868
101.682
126.654
158.356
198.816
250.567
316.321
397.132
487.303
563.934
573.376
454.354
273.139
136.731
61.7593
522.091
5.70348
7.92528
10.6313
13.8853
17.7846
22.469
28.1244
34.9931
43.3847
53.6998
66.4607
82.3448
102.249
127.356
159.231
199.903
251.91
317.944
398.976
489.091
565.032
572.764
452.247
271.509
135.963
61.4832
522.164
5.81403
8.06322
10.7997
14.0892
18.0315
22.7687
28.4885
35.4349
43.9233
54.3594
67.2692
83.3412
103.481
128.885
161.131
202.265
254.829
321.465
402.968
492.936
567.349
571.364
447.706
268.042
134.331
60.896
522.339
6.00383
8.29904
11.0833
14.4308
18.4459
23.2716
29.0994
36.1785
44.8308
55.4694
68.6312
85.0196
105.557
131.462
164.333
206.242
259.735
327.369
409.62
499.266
571.025
568.811
440.226
262.46
131.706
59.9515
522.691
6.29965
8.65475
11.5099
14.9469
19.0713
24.0308
30.0226
37.3033
46.2033
57.1491
70.6951
87.5632
108.704
135.365
169.182
212.256
267.138
336.238
419.524
508.508
576.082
564.556
429.323
254.584
128.006
58.6209
523.347
6.72913
9.15853
12.1134
15.6769
19.9562
25.105
31.3296
38.8964
48.1499
59.5346
73.6256
91.176
113.17
140.9
176.05
220.758
277.565
348.644
433.19
520.901
582.256
557.894
414.792
244.518
123.279
56.9222
524.502
7.31858
9.82136
12.9158
16.6506
21.1364
26.5373
33.0716
41.0228
50.7526
62.7292
77.5572
96.0258
119.167
148.326
185.243
232.093
291.384
364.915
450.774
536.243
588.993
548.472
397.378
232.994
117.867
54.9823
526.406
7.32085
9.82157
12.9163
16.6501
21.1354
26.5357
33.0698
41.0199
50.7489
62.7239
77.5508
96.0184
119.158
148.315
185.23
232.077
291.364
364.889
450.743
536.2
588.938
548.411
397.327
232.964
117.852
54.9759
526.364
6.73076
9.15804
12.1127
15.6762
19.9551
25.1033
31.3274
38.8936
48.1464
59.5302
73.6203
91.1686
113.161
140.89
176.039
220.743
277.547
348.622
433.162
520.861
582.206
557.838
414.744
244.488
123.264
56.9159
524.464
6.30191
8.65511
11.5099
14.9463
19.0703
24.0293
30.0206
37.3008
46.2002
57.1457
70.6905
87.5582
108.697
135.357
169.172
212.244
267.123
336.22
419.5
508.476
576.038
564.507
429.277
254.557
127.992
58.615
523.311
6.00643
8.29904
11.0834
14.4308
18.445
23.27
29.0971
36.1763
44.827
55.4651
68.6269
85.0143
105.551
131.454
164.325
206.232
259.722
327.353
409.599
499.239
570.99
568.771
440.186
262.436
131.694
59.9468
522.664
5.8161
8.06474
10.7999
14.0887
18.0307
22.7673
28.4865
35.4327
43.9198
54.3549
67.2644
83.3353
103.475
128.878
161.123
202.255
254.816
321.45
402.948
492.909
567.315
571.322
447.667
268.018
134.319
60.891
522.313
5.70466
7.92544
10.6318
13.8852
17.7838
22.4675
28.1228
34.9904
43.3808
53.6961
66.4557
82.3389
102.242
127.349
159.222
199.893
251.898
317.928
398.959
489.069
565.001
572.722
452.208
271.484
135.951
61.4782
522.139
5.65726
7.86306
10.5552
13.7916
17.6698
22.3292
27.9547
34.7862
43.1325
53.3921
66.0826
81.8802
101.675
126.646
158.347
198.806
250.555
316.306
397.114
487.279
563.904
573.339
454.319
273.118
136.72
61.7549
522.07
5.65579
7.85955
10.5491
13.7826
17.6583
22.3148
27.937
34.7647
43.1064
53.3615
66.045
81.8347
101.619
126.577
158.262
198.7
250.425
316.148
396.935
487.106
563.796
573.399
454.522
273.277
136.795
61.7821
522.066
5.68687
7.89536
10.5921
13.8343
17.7197
22.3885
28.0257
34.873
43.2389
53.5239
66.2457
82.0819
101.925
126.957
158.734
199.288
251.153
317.029
397.936
488.078
564.388
573.056
453.362
272.377
136.371
61.6295
522.1
5.73603
7.95519
10.664
13.9195
17.8221
22.5119
28.175
35.0542
43.4609
53.7953
66.5781
82.4921
102.434
127.589
159.521
200.266
252.361
318.488
399.593
489.677
565.362
572.481
451.448
270.905
135.678
61.3804
522.166
5.78562
8.01786
10.7379
14.009
17.9293
22.6408
28.3317
35.2442
43.6921
54.0788
66.9271
82.923
102.967
128.251
160.344
201.289
253.624
320.011
401.319
491.34
566.358
571.86
449.456
269.381
134.96
61.1223
522.233
5.81923
8.05873
10.7873
14.0682
18.0006
22.7271
28.436
35.3716
43.8476
54.2686
67.1606
83.2099
103.322
128.691
160.892
201.969
254.465
321.026
402.465
492.437
567.009
571.433
448.134
268.38
134.489
60.9521
522.279
5.82009
8.05807
10.7877
14.0679
18.0005
22.7271
28.436
35.3715
43.8471
54.2684
67.1602
83.2105
103.322
128.691
160.891
201.969
254.464
321.024
402.464
492.435
567.006
571.43
448.134
268.378
134.488
60.9521
522.279
5.78561
8.01798
10.7378
14.0088
17.9291
22.641
28.3318
35.2446
43.6922
54.0789
66.927
82.9223
102.966
128.25
160.343
201.288
253.623
320.011
401.317
491.337
566.356
571.856
449.452
269.379
134.96
61.1217
522.23
5.73529
7.95617
10.664
13.9194
17.822
22.5117
28.1753
35.0545
43.4604
53.7943
66.5782
82.4925
102.434
127.588
159.52
200.265
252.36
318.487
399.591
489.674
565.36
572.479
451.446
270.901
135.676
61.3799
522.162
5.68717
7.89591
10.5922
13.8343
17.7196
22.3884
28.0255
34.8725
43.2392
53.5236
66.2454
82.0816
101.925
126.957
158.735
199.288
251.153
317.029
397.938
488.08
564.393
573.061
453.366
272.38
136.373
61.6306
522.103
5.65576
7.85981
10.5488
13.7827
17.6583
22.3147
27.9368
34.7644
43.1066
53.3615
66.0455
81.8345
101.619
126.576
158.262
198.7
250.425
316.149
396.936
487.108
563.797
573.399
454.522
273.276
136.794
61.7821
522.066
5.65646
7.86358
10.5559
13.7916
17.6699
22.3289
27.9537
34.7848
43.1312
53.3915
66.0815
81.8794
101.674
126.645
158.346
198.805
250.554
316.305
397.113
487.281
563.903
573.337
454.316
273.115
136.719
61.7549
522.07
5.706
7.92704
10.6324
13.8857
17.7839
22.4674
28.1221
34.989
43.3797
53.6951
66.4535
82.337
102.24
127.347
159.219
199.89
251.895
317.925
398.954
489.062
564.993
572.718
452.197
271.479
135.948
61.4771
522.136
5.8173
8.065
10.8008
14.0892
18.0308
22.7669
28.4858
35.4312
43.9191
54.354
67.2622
83.3331
103.472
128.875
161.119
202.251
254.811
321.444
402.941
492.901
567.305
571.31
447.656
268.011
134.315
60.8898
522.31
6.00745
8.30052
11.0845
14.4314
18.4451
23.2696
29.096
36.1743
44.8256
55.4631
68.6234
85.0106
105.547
131.45
164.32
206.226
259.715
327.345
409.59
499.225
570.975
568.754
440.17
262.425
131.689
59.9445
522.653
6.30401
8.65783
11.5113
14.9472
19.0704
24.0286
30.019
37.2989
46.198
57.1431
70.6876
87.5543
108.692
135.351
169.166
212.237
267.115
336.21
419.489
508.462
576.021
564.485
429.256
254.544
127.986
58.6125
523.299
6.73448
9.16082
12.1152
15.6774
19.9552
25.1029
31.3254
38.8912
48.1428
59.5259
73.6159
91.1644
113.156
140.884
176.031
220.735
277.537
348.609
433.148
520.842
582.18
557.81
414.72
244.474
123.257
56.9128
524.447
7.32416
9.82539
12.9186
16.6513
21.1355
26.5348
33.0676
41.0173
50.7455
62.7198
77.5468
96.0131
119.151
148.308
185.221
232.067
291.353
364.875
450.723
536.177
588.911
548.383
397.303
232.949
117.845
54.9728
526.346
7.31763
9.81924
12.9141
16.6495
21.1357
26.5371
33.0718
41.0225
50.7529
62.7297
77.5576
96.0262
119.167
148.326
185.243
232.094
291.385
364.916
450.774
536.242
588.993
548.472
397.378
232.994
117.867
54.9824
526.411
6.72876
9.15633
12.111
15.6755
19.9554
25.1047
31.3294
38.8964
48.1502
59.5348
73.6264
91.1758
113.17
140.901
176.052
220.759
277.567
348.647
433.195
520.906
582.26
557.901
414.797
244.522
123.28
56.9229
524.511
6.29863
8.65326
11.5088
14.9457
19.0704
24.0301
30.0222
37.3031
46.2035
57.1498
70.6954
87.5644
108.704
135.366
169.184
212.258
267.141
336.242
419.529
508.513
576.092
564.57
429.333
254.59
128.008
58.6222
523.359
6.00406
8.29841
11.0818
14.4301
18.445
23.2708
29.0989
36.178
44.8306
55.4691
68.6315
85.0199
105.558
131.462
164.335
206.244
259.737
327.373
409.624
499.273
571.031
568.821
440.235
262.465
131.708
59.9526
522.702
5.81399
8.06397
10.7995
14.0882
18.0307
22.7679
28.4873
35.434
43.9223
54.3579
67.268
83.3404
103.48
128.885
161.131
202.265
254.828
321.464
402.968
492.938
567.35
571.364
447.708
268.044
134.332
60.8966
522.346
5.70399
7.92555
10.6312
13.8849
17.7839
22.4684
28.1239
34.992
43.383
53.6987
66.4585
82.3428
102.247
127.355
159.229
199.901
251.909
317.942
398.974
489.09
565.031
572.762
452.241
271.506
135.961
61.4826
522.164
5.65637
7.86237
10.5548
13.791
17.6699
22.3297
27.9556
34.7876
43.1347
53.395
66.0861
81.8842
101.68
126.651
158.353
198.813
250.564
316.317
397.128
487.301
563.926
573.367
454.347
273.134
136.728
61.7582
522.087
5.65387
7.85894
10.5481
13.7825
17.6584
22.315
27.9379
34.7662
43.1087
53.364
66.048
81.8382
101.624
126.581
158.267
198.705
250.431
316.156
396.946
487.12
563.813
573.419
454.542
273.289
136.801
61.7848
522.077
5.68564
7.89509
10.592
13.8339
17.7199
22.389
28.0269
34.8741
43.2402
53.5255
66.2477
82.0836
101.928
126.96
158.738
199.292
251.157
317.033
397.942
488.085
564.403
573.075
453.381
272.389
136.377
61.6323
522.11
5.73623
7.95541
10.6631
13.9195
17.8222
22.512
28.1759
35.0554
43.4611
53.7955
66.5792
82.494
102.435
127.591
159.523
200.269
252.364
318.491
399.597
489.682
565.371
572.493
451.46
270.911
135.681
61.3815
522.17
5.78668
8.01672
10.738
14.0086
17.9294
22.6413
28.3319
35.2455
43.6937
54.0796
66.9288
82.924
102.968
128.252
160.345
201.289
253.624
320.012
401.319
491.338
566.358
571.861
449.46
269.384
134.961
61.1223
522.23
5.81895
8.05841
10.7871
14.0681
18.0007
22.7273
28.4364
35.3716
43.8483
54.2696
67.1616
83.211
103.323
128.692
160.892
201.969
254.464
321.024
402.463
492.436
567.007
571.433
448.137
268.379
134.489
60.9521
522.275
5.81916
8.05779
10.7876
14.068
18.0006
22.7272
28.4359
35.3718
43.8479
54.2683
67.1602
83.2101
103.322
128.691
160.891
201.968
254.463
321.023
402.461
492.433
567.006
571.431
448.133
268.379
134.488
60.9521
522.272
5.78595
8.01713
10.7379
14.0089
17.9294
22.6412
28.3317
35.2446
43.6926
54.079
66.9282
82.9237
102.967
128.25
160.343
201.287
253.622
320.01
401.316
491.335
566.355
571.854
449.451
269.379
134.959
61.1217
522.226
5.73628
7.95632
10.6642
13.9196
17.8223
22.5121
28.1758
35.0549
43.4606
53.7954
66.5793
82.4928
102.435
127.589
159.521
200.265
252.359
318.486
399.59
489.673
565.36
572.477
451.444
270.901
135.676
61.3799
522.159
5.68577
7.89688
10.5929
13.8346
17.7199
22.3885
28.0264
34.8735
43.2396
53.5239
66.2452
82.081
101.924
126.956
158.734
199.287
251.151
317.026
397.933
488.073
564.387
573.054
453.361
272.376
136.371
61.6295
522.096
5.65461
7.85992
10.5489
13.7831
17.6586
22.3148
27.9371
34.7648
43.1069
53.3617
66.0453
81.8344
101.619
126.576
158.261
198.699
250.423
316.145
396.932
487.103
563.791
573.392
454.518
273.272
136.793
61.7815
522.059
5.65641
7.86371
10.5559
13.7918
17.6701
22.3293
27.9541
34.7854
43.1322
53.3923
66.0822
81.8791
101.674
126.644
158.346
198.803
250.552
316.302
397.109
487.274
563.898
573.33
454.311
273.112
136.717
61.7538
522.059
5.70557
7.92736
10.6326
13.8859
17.7842
22.4678
28.1221
34.9892
43.3798
53.6948
66.4538
82.3374
102.24
127.346
159.219
199.889
251.894
317.923
398.952
489.058
564.989
572.713
452.196
271.477
135.947
61.4765
522.128
5.81746
8.06628
10.8017
14.0897
18.0311
22.7671
28.4862
35.4321
43.9193
54.3534
67.2617
83.3325
103.472
128.874
161.118
202.249
254.809
321.441
402.937
492.899
567.299
571.303
447.651
268.008
134.314
60.8893
522.302
6.00759
8.3015
11.0849
14.4315
18.4454
23.2697
29.0969
36.1752
44.8257
55.463
68.6233
85.0105
105.547
131.449
164.319
206.225
259.714
327.343
409.587
499.221
570.969
568.744
440.165
262.421
131.686
59.9439
522.649
6.30418
8.65743
11.5118
14.9478
19.0707
24.029
30.0196
37.2988
46.1976
57.1422
70.6872
87.5539
108.692
135.351
169.165
212.236
267.113
336.208
419.485
508.457
576.015
564.48
429.251
254.542
127.984
58.6119
523.291
6.73448
9.16124
12.1156
15.6776
19.9557
25.1032
31.3259
38.8911
48.1427
59.5259
73.6159
91.1637
113.155
140.883
176.03
220.733
277.535
348.606
433.145
520.838
582.177
557.802
414.714
244.471
123.256
56.9122
524.438
7.32346
9.82585
12.9189
16.6518
21.1357
26.5349
33.0674
41.0166
50.7455
62.72
77.547
96.0134
119.152
148.309
185.222
232.068
291.353
364.876
450.724
536.177
588.911
548.38
397.302
232.949
117.844
54.9727
526.346
5.913
5.40272
5.04535
4.78598
4.60565
4.48937
4.42487
4.40087
4.40654
4.4306
4.46029
4.48083
4.48022
4.45949
4.43092
4.40717
4.40168
4.42599
4.49078
4.60702
4.78763
5.04872
5.40687
5.91941
5.40151
4.89095
4.51783
4.24214
4.04195
3.90126
3.8083
3.75325
3.72739
3.72199
3.72793
3.73493
3.73519
3.72814
3.72244
3.72802
3.75409
3.8094
3.90273
4.04368
4.24394
4.52084
4.89548
5.40765
5.04467
4.51727
4.11917
3.82217
3.60173
3.44024
3.32512
3.24701
3.19813
3.17155
3.16062
3.15802
3.15782
3.16075
3.17194
3.19859
3.24763
3.32606
3.44161
3.60373
3.82486
4.1229
4.52245
5.05024
4.78487
4.24105
3.8217
3.50372
3.26362
3.08322
2.94961
2.85333
2.78694
2.74503
2.72181
2.71218
2.71217
2.72182
2.74529
2.78748
2.85382
2.9503
3.08422
3.26511
3.50592
3.82501
4.24584
4.79012
4.60413
4.04045
3.60097
3.26329
3.00492
2.80765
2.65839
2.54717
2.46717
2.41404
2.38188
2.36714
2.36712
2.38178
2.41417
2.46807
2.54781
2.6588
2.80826
3.00591
3.26505
3.60388
4.04485
4.60911
4.48767
3.89952
3.43921
3.08269
2.8075
2.59531
2.43241
2.30954
2.21939
2.15688
2.11787
2.09936
2.09936
2.11779
2.1568
2.21938
2.30992
2.43289
2.59558
2.80811
3.08409
3.44175
3.90367
4.49247
4.4229
3.8064
3.3239
2.94895
2.65808
2.43235
2.25812
2.12588
2.02783
1.95858
1.91468
1.89338
1.8933
1.9144
1.95832
2.02741
2.12556
2.2586
2.43258
2.65838
2.94997
3.32611
3.81029
4.42781
4.39893
3.75128
3.24565
2.85258
2.54719
2.30979
2.12581
1.98571
1.8814
1.8068
1.75935
1.73577
1.73568
1.7588
1.80639
1.88055
1.98501
2.12554
2.30919
2.54678
2.85291
3.24708
3.75462
4.40368
4.40456
3.72541
3.19678
2.78637
2.46764
2.21997
2.02776
1.881
1.77131
1.69302
1.64255
1.61775
1.61763
1.6423
1.69308
1.77102
1.88012
2.02683
2.21845
2.46636
2.78589
3.19744
3.72785
4.40887
4.42867
3.71997
3.17027
2.7443
2.41398
2.15763
1.95916
1.80678
1.69309
1.61178
1.55924
1.53327
1.53312
1.55883
1.61113
1.69203
1.80561
1.95766
2.15566
2.41249
2.74438
3.171
3.72223
4.43224
4.45832
3.72592
3.15926
2.72104
2.38169
2.11871
1.91538
1.75957
1.64294
1.55937
1.50538
1.47879
1.47856
1.50497
1.55869
1.64143
1.75774
1.91313
2.11645
2.37999
2.72036
3.15944
3.72813
4.46266
4.47954
3.73321
3.15675
2.71148
2.36699
2.10019
1.89386
1.73582
1.61793
1.53404
1.47892
1.45226
1.45161
1.47856
1.53247
1.61663
1.73469
1.89194
2.09801
2.36538
2.71028
3.15692
3.73532
4.4834
4.47976
3.73329
3.15687
2.71154
2.36702
2.1002
1.8939
1.73575
1.61782
1.53386
1.47926
1.45206
1.45145
1.47804
1.53226
1.61643
1.73433
1.89242
2.09801
2.36516
2.71036
3.15762
3.73572
4.48298
4.45891
3.72632
3.15955
2.7212
2.38177
2.11866
1.9152
1.75894
1.64227
1.55893
1.50537
1.47856
1.47842
1.50436
1.55793
1.64099
1.75744
1.91363
2.11703
2.3806
2.71996
3.15966
3.72828
4.4623
4.42934
3.72059
3.17067
2.74448
2.41404
2.15749
1.95907
1.80672
1.69269
1.61127
1.5587
1.53321
1.5326
1.5583
1.61029
1.69128
1.80488
1.95673
2.15536
2.41252
2.74355
3.17135
3.72284
4.43232
4.40536
3.72612
3.19724
2.78661
2.46767
2.21987
2.02764
1.88069
1.77136
1.69262
1.64168
1.61689
1.617
1.6415
1.69183
1.76948
1.87918
2.02597
2.21789
2.46607
2.78576
3.19756
3.72806
4.40846
4.39992
3.75213
3.2462
2.85287
2.5472
2.30935
2.12548
1.9851
1.88027
1.80573
1.75793
1.73462
1.73456
1.75823
1.80569
1.8793
1.98395
2.12434
2.30813
2.54597
2.85238
3.24691
3.75441
4.4031
4.42416
3.80736
3.32462
2.94926
2.65822
2.43224
2.25791
2.12541
2.02706
1.9576
1.91358
1.89224
1.89205
1.91318
1.95774
2.02691
2.12513
2.25767
2.43189
2.65801
2.94995
3.32641
3.81076
4.4282
4.48892
3.90062
3.44008
3.08338
2.80779
2.59468
2.43267
2.30977
2.21959
2.15689
2.11768
2.09892
2.09825
2.11723
2.15636
2.2189
2.30896
2.4319
2.59488
2.80781
3.08415
3.44213
3.90424
4.49308
4.60544
4.04168
3.6021
3.2641
3.00548
2.80794
2.65848
2.54733
2.46757
2.41371
2.38126
2.36634
2.36555
2.38102
2.41334
2.46712
2.54684
2.65801
2.8078
3.00585
3.26536
3.60448
4.04571
4.61012
4.78619
4.24249
3.823
3.50401
3.26365
3.08298
2.94992
2.85343
2.78706
2.74488
2.72147
2.71169
2.71144
2.72127
2.74474
2.78691
2.85331
2.94996
3.08415
3.26537
3.50658
3.82599
4.24706
4.79154
5.04555
4.51831
4.12023
3.82389
3.60325
3.44127
3.32584
3.24761
3.19875
3.17217
3.16104
3.15827
3.15762
3.16112
3.17221
3.19882
3.24792
3.32644
3.44216
3.6045
3.82603
4.12449
4.52442
5.05252
5.40524
4.89387
4.52053
4.24449
4.04404
3.90293
3.80953
3.75493
3.72914
3.72376
3.7296
3.73681
3.73681
3.72974
3.7239
3.72939
3.75544
3.81081
3.9043
4.04571
4.24716
4.52446
4.89954
5.4118
5.91657
5.40578
5.04827
4.78868
4.608
4.49132
4.42645
4.40263
4.40915
4.43343
4.46318
4.48424
4.48425
4.46326
4.4336
4.4096
4.40407
4.4283
4.49319
4.61017
4.79166
5.05258
5.41185
5.92412

)


// ************************************************************************* //
