/*--------------------------------*- C++ -*----------------------------------*\
| =========                 |                                                 |
| \\      /  F ield         | OpenFOAM: The Open Source CFD Toolbox           |
|  \\    /   O peration     | Version:  2512                                  |
|   \\  /    A nd           | Website:  www.openfoam.com                      |
|    \\/     M anipulation  |                                                 |
\*---------------------------------------------------------------------------*/
FoamFile
{
    version     2.0;
    format      ascii;
    arch        "LSB;label=32;scalar=64";
    note        "face data";
    class       scalarField;
    location    "/home/khoi/Desktop/PressureStraight/MeshIndependenceStudy/Fine/postProcessing/outletSample/outlet/602";
    object      omega;
}
// * * * * * * * * * * * * * * * * * * * * * * * * * * * * * * * * * * * * * //


3168
(
191.422
179.768
171.185
165.219
161.362
159.139
158.187
158.202
158.89
159.916
160.993
161.698
161.707
161.032
159.937
158.896
158.252
158.253
159.225
161.471
165.352
171.327
179.99
191.646
239.057
226.66
217.163
210.41
205.927
203.325
202.15
202.116
202.876
204.082
205.298
206.082
206.103
205.286
204.094
202.902
202.178
202.212
203.407
206.036
210.552
217.346
226.861
239.287
295.591
281.189
270.275
262.489
257.348
254.294
252.942
252.862
253.716
255.056
256.461
257.373
257.386
256.457
255.072
253.74
252.896
252.991
254.364
257.443
262.617
270.405
281.357
295.773
362.139
345.146
332.284
323.161
317.11
313.533
311.908
311.807
312.767
314.332
315.946
317.023
317.021
315.959
314.347
312.787
311.836
311.95
313.591
317.191
323.249
332.4
345.273
362.28
441.092
420.823
405.506
394.646
387.454
383.188
381.247
381.1
382.223
384.056
385.961
387.224
387.226
385.966
384.066
382.239
381.123
381.28
383.232
387.511
394.716
405.59
420.92
441.192
535.724
511.35
492.944
479.905
471.271
466.146
463.807
463.61
464.938
467.122
469.39
470.9
470.901
469.395
467.129
464.951
463.633
463.834
466.179
471.312
479.957
493.007
511.418
535.791
650.296
620.769
598.493
582.721
572.277
566.083
563.243
563.004
564.594
567.21
569.937
571.761
571.763
569.949
567.209
564.607
563.019
563.268
566.101
572.31
582.755
598.536
620.808
650.34
790.306
754.294
727.147
707.955
695.238
687.694
684.255
683.942
685.864
689.032
692.35
694.557
694.563
692.36
689.037
685.878
683.953
684.263
687.723
695.27
707.971
727.179
754.322
790.334
962.904
918.694
885.422
861.895
846.33
837.08
832.858
832.469
834.807
838.698
842.759
845.45
845.448
842.754
838.706
834.827
832.469
832.862
837.099
846.344
861.912
885.451
918.709
962.924
1177.56
1122.93
1081.86
1052.81
1033.62
1022.23
1017
1016.51
1019.39
1024.17
1029.18
1032.5
1032.49
1029.17
1024.19
1019.41
1016.53
1017
1022.22
1033.63
1052.82
1081.87
1122.93
1177.55
1446.92
1378.97
1327.89
1291.8
1267.94
1253.78
1247.27
1246.68
1250.25
1256.19
1262.39
1266.51
1266.5
1262.39
1256.19
1250.27
1246.68
1247.27
1253.78
1267.94
1291.8
1327.9
1378.95
1446.91
1788.38
1703.17
1639.15
1593.91
1564.02
1546.27
1538.12
1537.36
1541.82
1549.25
1557.01
1562.18
1562.17
1557.01
1549.26
1541.84
1537.36
1538.11
1546.25
1564.01
1593.91
1639.16
1703.15
1788.36
2226.13
2118.33
2037.35
1980.11
1942.29
1919.84
1909.54
1908.57
1914.21
1923.59
1933.39
1939.91
1939.9
1933.39
1923.59
1914.22
1908.57
1909.52
1919.82
1942.28
1980.1
2037.33
2118.31
2226.1
2794.66
2656.88
2553.31
2480.14
2431.79
2403.1
2389.93
2388.68
2395.89
2407.85
2420.36
2428.68
2428.68
2420.36
2407.85
2395.89
2388.68
2389.91
2403.08
2431.78
2480.11
2553.29
2656.85
2794.62
3544.27
3366.04
3231.97
3137.25
3074.7
3037.58
3020.54
3018.92
3028.23
3043.68
3059.85
3070.61
3070.61
3059.85
3043.69
3028.23
3018.92
3020.53
3037.56
3074.68
3137.22
3231.94
3366
3544.22
4550.18
4316.41
4140.38
4016.06
3933.98
3885.28
3862.93
3860.8
3873
3893.25
3914.44
3928.54
3928.55
3914.44
3893.25
3872.99
3860.79
3862.92
3885.27
3933.95
4016.03
4140.34
4316.36
4550.12
5928.09
5616.55
5381.69
5215.86
5106.4
5041.46
5011.66
5008.8
5025.05
5052.04
5080.27
5099.06
5099.06
5080.27
5052.04
5025.05
5008.79
5011.64
5041.44
5106.36
5215.81
5381.63
5616.48
5928.02
7862.92
7439.94
7120.59
6895.07
6746.22
6657.93
6617.4
6613.51
6635.59
6672.27
6710.63
6736.16
6736.17
6710.63
6672.27
6635.58
6613.49
6617.37
6657.91
6746.17
6895.02
7120.52
7439.85
7862.84
10642.7
10060.6
9620.03
9308.61
9102.94
8980.91
8924.88
8919.47
8949.99
9000.69
9053.68
9088.95
9088.97
9053.68
9000.67
8949.97
8919.45
8924.82
8980.88
9102.87
9308.54
9619.94
10060.5
10642.6
14712.4
13905.5
13293
12859.2
12572.4
12402.1
12323.9
12316.4
12359
12429.7
12503.6
12552.8
12552.8
12503.6
12429.7
12358.9
12316.3
12323.9
12402.1
12572.3
12859.1
13292.8
13905.3
14712.2
20848.6
19705.1
18837
18222.1
17815.5
17573.9
17462.9
17452.2
17512.6
17612.9
17717.8
17787.5
17787.5
17717.7
17612.9
17512.5
17452.1
17462.8
17573.8
17815.3
18221.9
18836.7
19704.8
20848.3
30738.6
28995.5
27684
26760.9
26152.8
25792.3
25626.8
25610.9
25700.9
25850.4
26006.8
26110.9
26110.9
26006.7
25850.3
25700.8
25610.8
25626.7
25792.1
26152.5
26760.6
27683.6
28995
30738.1
49275.1
46137.7
43817.5
42206.3
41154.9
40535.7
40252.3
40224.9
40378.9
40635.1
40903.7
41082.9
41082.8
40903.7
40635
40378.8
40224.7
40252.1
40535.4
41154.5
42205.8
43816.9
46137.1
49274.4
93644.8
86702.2
81595.1
78067.7
75776
74430.6
73815.9
73756.6
74090.4
74646.5
75230.2
75619.7
75619.7
75230.1
74646.4
74090.3
73756.5
73815.7
74430.3
75775.7
78067.2
81594.5
86701.6
93644.2
229013
210600
197017
187616
181499
177905
176262
176103
176996
178482
180042
181083
181083
180042
178482
176996
176103
176262
177905
181499
187615
197017
210600
229012
795900
730646
682447
649051
627304
614517
608670
608107
611284
616574
622125
625828
625828
622125
616574
611284
608107
608670
614517
627304
649051
682447
730646
795900
5.15363e+06
4.73032e+06
4.41759e+06
4.20088e+06
4.05974e+06
3.97674e+06
3.93879e+06
3.93513e+06
3.95575e+06
3.9901e+06
4.02614e+06
4.05018e+06
4.05018e+06
4.02614e+06
3.9901e+06
3.95575e+06
3.93513e+06
3.93879e+06
3.97674e+06
4.05974e+06
4.20088e+06
4.41759e+06
4.73032e+06
5.15363e+06
191.426
239.092
295.596
362.152
441.097
535.717
650.286
790.295
962.898
1177.54
1446.92
1788.38
2226.13
2794.66
3544.27
4550.18
5928.09
7862.92
10642.7
14712.4
20848.6
30738.6
49275.1
93644.8
229013
795900
5.15363e+06
179.778
226.689
281.211
345.156
420.83
511.354
620.771
754.291
918.689
1122.92
1378.96
1703.16
2118.33
2656.88
3366.04
4316.41
5616.55
7439.95
10060.6
13905.5
19705.2
28995.5
46137.8
86702.2
210600
730646
4.73032e+06
171.153
217.183
270.293
332.3
405.51
492.948
598.497
727.156
885.419
1081.85
1327.9
1639.17
2037.35
2553.32
3231.97
4140.39
5381.7
7120.61
9620.04
13292.9
18837
27684
43817.5
81595.1
197017
682447
4.41759e+06
165.171
210.407
262.5
323.166
394.646
479.902
582.718
707.95
861.883
1052.81
1291.8
1593.93
1980.12
2480.14
3137.26
4016.07
5215.86
6895.08
9308.63
12859.2
18222.1
26760.9
42206.4
78067.7
187616
649051
4.20088e+06
161.308
205.948
257.352
317.109
387.449
471.264
572.268
695.24
846.316
1033.62
1267.94
1564.02
1942.29
2431.79
3074.7
3933.98
5106.4
6746.23
9102.95
12572.4
17815.5
26152.8
41155
75776.1
181499
627304
4.05974e+06
159.094
203.302
254.292
313.528
383.18
466.133
566.068
687.698
837.085
1022.22
1253.76
1546.26
1919.83
2403.09
3037.58
3885.29
5041.47
6657.94
8980.92
12402.2
17573.9
25792.4
40535.8
74430.7
177905
614517
3.97674e+06
158.114
202.16
252.937
311.901
381.239
463.798
563.235
684.245
832.849
1016.98
1247.27
1538.11
1909.52
2389.92
3020.53
3862.93
5011.65
6617.4
8924.88
12323.9
17462.9
25626.9
40252.4
73816.1
176262
608670
3.93879e+06
158.153
202.107
252.864
311.799
381.09
463.606
562.997
683.938
832.462
1016.52
1246.68
1537.36
1908.57
2388.68
3018.92
3860.79
5008.8
6613.51
8919.5
12316.4
17452.3
25611
40225.1
73756.8
176104
608107
3.93513e+06
158.824
202.882
253.695
312.761
382.212
464.933
564.584
685.851
834.813
1019.39
1250.25
1541.84
1914.21
2395.89
3028.23
3873
5025.06
6635.6
8950
12359
17512.7
25701
40379
74090.6
176996
611284
3.95575e+06
159.909
204.068
255.056
314.315
384.042
467.11
567.203
689.035
838.694
1024.18
1256.19
1549.26
1923.59
2407.85
3043.69
3893.25
5052.04
6672.26
9000.68
12429.7
17612.9
25850.5
40635.3
74646.7
178482
616574
3.9901e+06
160.958
205.261
256.436
315.931
385.945
469.377
569.932
692.345
842.736
1029.17
1262.37
1557
1933.38
2420.36
3059.85
3914.44
5080.27
6710.64
9053.69
12503.7
17717.8
26006.9
40903.9
75230.4
180042
622125
4.02614e+06
161.67
206.065
257.36
317.004
387.207
470.876
571.744
694.548
845.439
1032.49
1266.51
1562.17
1939.91
2428.69
3070.61
3928.54
5099.07
6736.19
9088.99
12552.9
17787.6
26111.1
41083.1
75619.9
181083
625828
4.05018e+06
161.687
206.07
257.371
317.008
387.207
470.883
571.744
694.546
845.427
1032.48
1266.51
1562.17
1939.91
2428.68
3070.61
3928.54
5099.06
6736.17
9088.96
12552.9
17787.6
26111.1
41083.1
75620
181083
625828
4.05018e+06
161.001
205.285
256.449
315.931
385.943
469.375
569.928
692.341
842.731
1029.17
1262.37
1557
1933.38
2420.35
3059.85
3914.44
5080.27
6710.64
9053.7
12503.7
17717.9
26007
40904
75230.4
180042
622125
4.02614e+06
159.924
204.047
255.045
314.319
384.041
467.108
567.201
689.023
838.691
1024.17
1256.18
1549.25
1923.58
2407.84
3043.68
3893.25
5052.04
6672.28
9000.7
12429.7
17613
25850.5
40635.3
74646.7
178482
616574
3.9901e+06
158.849
202.873
253.711
312.758
382.212
464.931
564.577
685.861
834.816
1019.4
1250.25
1541.84
1914.22
2395.89
3028.23
3873
5025.06
6635.6
8950.01
12359
17512.7
25701
40379.1
74090.6
176996
611284
3.95575e+06
158.193
202.145
252.865
311.807
381.096
463.609
562.999
683.94
832.466
1016.5
1246.66
1537.35
1908.56
2388.68
3018.91
3860.79
5008.8
6613.5
8919.48
12316.4
17452.2
25611
40225.1
73756.8
176104
608107
3.93513e+06
158.188
202.175
252.959
311.925
381.252
463.808
563.246
684.247
832.852
1016.99
1247.28
1538.12
1909.53
2389.92
3020.53
3862.92
5011.65
6617.39
8924.87
12323.9
17462.9
25626.9
40252.4
73816
176262
608670
3.93879e+06
159.153
203.365
254.322
313.551
383.201
466.152
566.078
687.704
837.086
1022.21
1253.78
1546.26
1919.83
2403.08
3037.57
3885.27
5041.45
6657.92
8980.88
12402.1
17573.9
25792.3
40535.7
74430.6
177905
614517
3.97674e+06
161.391
205.986
257.389
317.152
387.478
471.285
572.289
695.24
846.32
1033.62
1267.94
1564.01
1942.28
2431.77
3074.68
3933.96
5106.37
6746.2
9102.92
12572.4
17815.4
26152.7
41154.9
75776
181499
627304
4.05974e+06
165.25
210.494
262.571
323.209
394.683
479.93
582.734
707.952
861.9
1052.83
1291.8
1593.91
1980.1
2480.12
3137.23
4016.04
5215.83
6895.05
9308.57
12859.2
18222
26760.8
42206.2
78067.6
187616
649051
4.20088e+06
171.258
217.273
270.358
332.357
405.556
492.979
598.515
727.168
885.433
1081.85
1327.89
1639.14
2037.33
2553.3
3231.94
4140.35
5381.65
7120.56
9620
13292.9
18836.9
27683.8
43817.3
81594.9
197017
682447
4.41759e+06
179.885
226.816
281.313
345.233
420.884
511.386
620.795
754.307
918.706
1122.93
1378.95
1703.16
2118.32
2656.85
3366.01
4316.38
5616.51
7439.88
10060.5
13905.4
19705
28995.3
46137.5
86702
210600
730646
4.73032e+06
191.553
239.209
295.702
362.232
441.155
535.761
650.31
790.317
962.911
1177.55
1446.91
1788.36
2226.11
2794.64
3544.24
4550.14
5928.04
7862.87
10642.6
14712.3
20848.5
30738.4
49274.9
93644.6
229013
795900
5.15363e+06
191.664
239.266
295.765
362.273
441.188
535.788
650.34
790.337
962.925
1177.55
1446.91
1788.36
2226.11
2794.63
3544.22
4550.12
5928.02
7862.83
10642.6
14712.2
20848.3
30738.1
49274.4
93644.2
229012
795900
5.15363e+06
179.977
226.855
281.349
345.268
420.911
511.408
620.814
754.324
918.719
1122.94
1378.96
1703.15
2118.31
2656.85
3366.01
4316.37
5616.49
7439.87
10060.5
13905.3
19704.9
28995
46137.2
86701.7
210600
730646
4.73032e+06
171.367
217.329
270.406
332.392
405.585
493.003
598.534
727.186
885.448
1081.87
1327.9
1639.16
2037.34
2553.31
3231.95
4140.36
5381.67
7120.58
9620.01
13292.9
18836.8
27683.7
43817
81594.6
197017
682447
4.41759e+06
165.368
210.542
262.623
323.256
394.715
479.952
582.747
707.976
861.901
1052.83
1291.81
1593.92
1980.11
2480.13
3137.24
4016.05
5215.84
6895.06
9308.58
12859.2
18222
26760.7
42206
78067.4
187616
649051
4.20088e+06
161.499
206.074
257.441
317.192
387.514
471.314
572.31
695.266
846.33
1033.62
1267.95
1564.02
1942.3
2431.79
3074.7
3933.98
5106.39
6746.23
9102.95
12572.4
17815.4
26152.6
41154.7
75775.8
181499
627304
4.05974e+06
159.232
203.418
254.385
313.6
383.239
466.179
566.11
687.721
837.092
1022.23
1253.79
1546.27
1919.84
2403.1
3037.59
3885.3
5041.48
6657.95
8980.94
12402.2
17573.9
25792.2
40535.5
74430.4
177905
614517
3.97674e+06
158.303
202.255
253.014
311.975
381.292
463.84
563.274
684.269
832.866
1017
1247.28
1538.12
1909.54
2389.93
3020.55
3862.95
5011.68
6617.43
8924.89
12323.9
17462.9
25626.8
40252.2
73815.9
176262
608670
3.93879e+06
158.316
202.23
252.945
311.856
381.139
463.643
563.026
683.959
832.476
1016.53
1246.68
1537.37
1908.58
2388.7
3018.94
3860.82
5008.84
6613.54
8919.52
12316.4
17452.2
25610.9
40225
73756.7
176103
608107
3.93513e+06
158.999
202.953
253.771
312.82
382.258
464.968
564.605
685.877
834.825
1019.42
1250.28
1541.86
1914.24
2395.92
3028.26
3873.04
5025.11
6635.66
8950.09
12359.1
17512.7
25701
40379
74090.5
176996
611284
3.95575e+06
160.044
204.139
255.126
314.373
384.088
467.145
567.222
689.047
838.715
1024.2
1256.19
1549.26
1923.6
2407.87
3043.72
3893.3
5052.1
6672.35
9000.78
12429.8
17613
25850.5
40635.2
74646.6
178482
616574
3.9901e+06
161.083
205.372
256.507
315.994
385.991
469.408
569.958
692.357
842.75
1029.18
1262.38
1557.02
1933.41
2420.39
3059.89
3914.49
5080.33
6710.71
9053.78
12503.8
17717.9
26007
40903.9
75230.3
180042
622125
4.02614e+06
161.792
206.17
257.424
317.062
387.252
470.92
571.775
694.575
845.462
1032.51
1266.52
1562.18
1939.92
2428.71
3070.65
3928.59
5099.13
6736.26
9089.08
12553
17787.7
26111.1
41083.1
75619.9
181083
625828
4.05018e+06
161.816
206.155
257.434
317.056
387.251
470.919
571.775
694.575
845.457
1032.51
1266.52
1562.2
1939.93
2428.71
3070.65
3928.6
5099.13
6736.26
9089.08
12553
17787.7
26111.1
41083.1
75619.9
181083
625828
4.05018e+06
161.086
205.377
256.506
315.99
385.988
469.414
569.963
692.371
842.758
1029.19
1262.39
1557.02
1933.41
2420.39
3059.89
3914.49
5080.34
6710.73
9053.81
12503.8
17718
26007
40903.9
75230.3
180042
622125
4.02614e+06
160.026
204.167
255.13
314.373
384.087
467.145
567.233
689.059
838.712
1024.19
1256.2
1549.28
1923.61
2407.88
3043.73
3893.31
5052.11
6672.36
9000.8
12429.8
17613.1
25850.6
40635.3
74646.6
178482
616574
3.9901e+06
159.008
202.971
253.778
312.825
382.261
464.971
564.607
685.874
834.836
1019.42
1250.28
1541.86
1914.25
2395.92
3028.27
3873.04
5025.12
6635.67
8950.1
12359.1
17512.7
25701
40379
74090.5
176996
611284
3.95575e+06
158.322
202.244
252.945
311.865
381.147
463.65
563.031
683.963
832.49
1016.54
1246.7
1537.38
1908.59
2388.7
3018.95
3860.83
5008.85
6613.57
8919.57
12316.5
17452.3
25611
40225
73756.7
176103
608107
3.93513e+06
158.289
202.276
253.04
311.985
381.304
463.847
563.268
684.258
832.859
1017.01
1247.28
1538.13
1909.54
2389.94
3020.56
3862.96
5011.69
6617.44
8924.92
12324
17463
25626.9
40252.3
73815.9
176262
608670
3.93879e+06
159.279
203.469
254.41
313.625
383.256
466.195
566.117
687.717
837.097
1022.24
1253.78
1546.27
1919.85
2403.1
3037.59
3885.3
5041.49
6657.97
8980.96
12402.2
17573.9
25792.3
40535.5
74430.4
177905
614517
3.97674e+06
161.542
206.093
257.479
317.221
387.535
471.329
572.322
695.267
846.351
1033.64
1267.95
1564.02
1942.29
2431.79
3074.69
3933.98
5106.39
6746.22
9102.94
12572.4
17815.4
26152.6
41154.7
75775.8
181499
627304
4.05974e+06
165.411
210.598
262.669
323.293
394.744
479.974
582.76
707.976
861.916
1052.84
1291.8
1593.91
1980.11
2480.13
3137.24
4016.05
5215.84
6895.05
9308.58
12859.1
18222
26760.7
42205.9
78067.3
187616
649051
4.20088e+06
171.44
217.419
270.464
332.439
405.62
493.026
598.543
727.195
885.455
1081.88
1327.91
1639.16
2037.34
2553.3
3231.94
4140.35
5381.66
7120.56
9620
13292.9
18836.8
27683.6
43816.9
81594.5
197017
682447
4.41759e+06
180.096
226.947
281.434
345.326
420.954
511.443
620.825
754.334
918.714
1122.93
1378.96
1703.16
2118.31
2656.85
3366
4316.36
5616.48
7439.85
10060.5
13905.3
19704.8
28994.9
46137
86701.6
210600
730646
4.73032e+06
191.771
239.386
295.849
362.337
441.235
535.819
650.352
790.347
962.93
1177.55
1446.92
1788.36
2226.1
2794.62
3544.21
4550.11
5928.01
7862.82
10642.5
14712.1
20848.2
30737.9
49274.3
93644.1
229012
795900
5.15363e+06
191.527
239.157
295.661
362.204
441.138
535.753
650.311
790.308
962.915
1177.56
1446.92
1788.37
2226.11
2794.64
3544.24
4550.15
5928.06
7862.89
10642.6
14712.3
20848.5
30738.4
49274.9
93644.6
229013
795900
5.15363e+06
179.875
226.76
281.257
345.198
420.861
511.374
620.785
754.304
918.707
1122.93
1378.96
1703.15
2118.31
2656.86
3366.02
4316.39
5616.53
7439.92
10060.6
13905.5
19705.1
28995.4
46137.6
86702.1
210600
730646
4.73032e+06
171.232
217.236
270.332
332.326
405.535
492.964
598.504
727.162
885.432
1081.86
1327.89
1639.16
2037.34
2553.31
3231.96
4140.37
5381.68
7120.58
9620.02
13292.9
18837
27684
43817.5
81595
197017
682447
4.41759e+06
165.261
210.483
262.54
323.197
394.669
479.919
582.729
707.949
861.902
1052.83
1291.81
1593.92
1980.11
2480.13
3137.25
4016.06
5215.86
6895.09
9308.62
12859.3
18222.1
26760.9
42206.3
78067.7
187616
649051
4.20088e+06
161.4
206.015
257.395
317.141
387.473
471.283
572.28
695.24
846.321
1033.61
1267.94
1564.02
1942.29
2431.79
3074.7
3933.98
5106.4
6746.22
9102.95
12572.5
17815.5
26152.7
41155
75776.1
181499
627304
4.05974e+06
159.178
203.386
254.335
313.56
383.205
466.159
566.091
687.707
837.082
1022.22
1253.77
1546.26
1919.83
2403.09
3037.58
3885.29
5041.47
6657.95
8980.93
12402.2
17574
25792.4
40535.8
74430.6
177905
614517
3.97674e+06
158.248
202.207
252.978
311.932
381.263
463.817
563.257
684.256
832.86
1017
1247.28
1538.12
1909.54
2389.93
3020.54
3862.94
5011.67
6617.41
8924.89
12324
17462.9
25626.9
40252.4
73816
176262
608670
3.93879e+06
158.234
202.188
252.895
311.83
381.115
463.621
563.013
683.951
832.478
1016.53
1246.68
1537.37
1908.58
2388.69
3018.93
3860.8
5008.82
6613.53
8919.52
12316.4
17452.2
25611
40225.1
73756.7
176104
608107
3.93513e+06
158.937
202.923
253.748
312.789
382.239
464.954
564.602
685.87
834.814
1019.41
1250.27
1541.84
1914.23
2395.9
3028.24
3873.01
5025.08
6635.62
8950.03
12359
17512.7
25701
40379
74090.6
176996
611284
3.95575e+06
160.027
204.124
255.087
314.354
384.07
467.126
567.217
689.044
838.688
1024.17
1256.17
1549.25
1923.58
2407.85
3043.69
3893.27
5052.07
6672.3
9000.73
12429.7
17613
25850.5
40635.3
74646.6
178482
616574
3.9901e+06
161.095
205.325
256.491
315.968
385.975
469.4
569.943
692.362
842.759
1029.17
1262.39
1557.01
1933.39
2420.37
3059.87
3914.46
5080.3
6710.68
9053.74
12503.7
17717.8
26006.9
40903.9
75230.3
180042
622125
4.02614e+06
161.767
206.147
257.405
317.045
387.24
470.91
571.768
694.559
845.458
1032.51
1266.52
1562.18
1939.92
2428.7
3070.62
3928.56
5099.09
6736.21
9089.02
12552.9
17787.6
26111
41083
75619.8
181083
625828
4.05018e+06
161.774
206.132
257.419
317.044
387.241
470.91
571.76
694.565
845.456
1032.49
1266.5
1562.17
1939.91
2428.69
3070.62
3928.56
5099.08
6736.2
9089
12552.9
17787.6
26111
41083
75619.8
181083
625828
4.05018e+06
161.083
205.343
256.496
315.982
385.983
469.406
569.947
692.353
842.747
1029.17
1262.39
1557.02
1933.39
2420.36
3059.86
3914.45
5080.29
6710.66
9053.72
12503.7
17717.9
26006.9
40903.8
75230.3
180042
622125
4.02614e+06
160.043
204.161
255.125
314.368
384.084
467.142
567.23
689.052
838.699
1024.19
1256.2
1549.26
1923.6
2407.86
3043.7
3893.26
5052.06
6672.3
9000.72
12429.7
17613
25850.4
40635.2
74646.5
178482
616574
3.9901e+06
158.961
202.987
253.787
312.823
382.259
464.964
564.615
685.881
834.83
1019.41
1250.26
1541.83
1914.21
2395.89
3028.24
3873.01
5025.07
6635.61
8950.03
12359
17512.7
25700.9
40378.9
74090.4
176996
611284
3.95575e+06
158.281
202.239
252.94
311.866
381.143
463.642
563.027
683.959
832.481
1016.53
1246.68
1537.36
1908.57
2388.68
3018.92
3860.8
5008.81
6613.51
8919.49
12316.4
17452.2
25610.9
40224.9
73756.6
176103
608107
3.93513e+06
158.28
202.271
253.035
311.98
381.302
463.846
563.267
684.257
832.866
1017.01
1247.28
1538.11
1909.52
2389.91
3020.53
3862.92
5011.65
6617.39
8924.86
12323.9
17462.9
25626.8
40252.1
73815.8
176262
608670
3.93879e+06
159.261
203.472
254.411
313.624
383.256
466.194
566.107
687.712
837.087
1022.22
1253.77
1546.26
1919.83
2403.08
3037.57
3885.27
5041.45
6657.92
8980.9
12402.1
17573.8
25792.2
40535.4
74430.3
177905
614517
3.97674e+06
161.542
206.123
257.495
317.228
387.537
471.326
572.324
695.276
846.345
1033.62
1267.93
1564
1942.28
2431.77
3074.67
3933.95
5106.36
6746.18
9102.88
12572.4
17815.3
26152.5
41154.6
75775.7
181499
627304
4.05974e+06
165.412
210.62
262.676
323.293
394.746
479.972
582.771
707.986
861.912
1052.83
1291.79
1593.9
1980.09
2480.11
3137.22
4016.02
5215.81
6895.02
9308.54
12859.1
18221.9
26760.6
42205.8
78067.2
187615
649051
4.20088e+06
171.446
217.408
270.474
332.451
405.627
493.032
598.553
727.191
885.446
1081.86
1327.9
1639.15
2037.33
2553.29
3231.93
4140.33
5381.63
7120.53
9619.96
13292.8
18836.7
27683.5
43816.8
81594.5
197017
682447
4.41759e+06
180.096
226.958
281.444
345.332
420.963
511.449
620.833
754.332
918.71
1122.93
1378.96
1703.15
2118.3
2656.84
3365.99
4316.35
5616.47
7439.84
10060.5
13905.3
19704.8
28994.9
46136.9
86701.5
210600
730646
4.73032e+06
191.754
239.396
295.855
362.348
441.239
535.821
650.347
790.332
962.926
1177.55
1446.92
1788.36
2226.1
2794.62
3544.21
4550.11
5928
7862.82
10642.5
14712.1
20848.2
30737.9
49274.3
93644
229012
795900
5.15363e+06
163.248
152.741
145.264
139.804
136.001
133.56
132.232
131.779
131.965
132.54
133.223
133.687
133.673
133.208
132.564
132.001
131.828
132.297
133.64
136.086
139.902
145.416
152.918
163.494
152.704
141.962
133.953
127.96
123.578
120.496
118.471
117.295
116.774
116.709
116.885
117.067
117.079
116.9
116.734
116.811
117.345
118.536
120.578
123.674
128.062
134.095
142.151
152.939
145.237
133.931
125.203
118.576
113.602
109.934
107.318
105.551
104.463
103.894
103.678
103.642
103.639
103.692
103.919
104.499
105.598
107.379
110.015
113.708
118.71
125.372
134.143
145.458
139.76
127.918
118.557
111.309
105.75
101.53
98.3843
96.1122
94.5522
93.5842
93.0553
92.8438
92.8471
93.0673
93.6061
94.5922
96.1563
98.4384
101.6
105.844
111.431
118.716
128.121
139.974
135.942
123.52
113.567
105.734
99.6242
94.8923
91.2703
88.5534
86.5947
85.3087
84.5323
84.1794
84.1819
84.538
85.3268
86.6476
88.6042
91.3187
94.9507
99.7037
105.843
113.715
123.713
136.15
133.491
120.425
109.886
101.5
94.8792
89.6795
85.6272
82.5409
80.2629
78.6814
77.6965
77.2326
77.2356
77.7051
78.6949
80.2849
82.5834
85.6789
89.7295
94.9466
101.598
110.023
120.611
133.693
132.152
118.391
107.259
98.3452
91.2495
85.6201
81.197
77.7995
75.2575
73.4505
72.3035
71.7473
71.7489
72.3059
73.457
75.2637
77.8159
81.2489
85.6688
91.3062
98.4306
107.385
118.569
132.355
131.696
117.209
105.486
96.0683
88.5394
82.5404
77.7922
74.1239
71.362
69.3644
68.0925
67.4546
67.4543
68.0805
69.3641
71.351
74.1252
77.8161
82.5586
88.5708
96.1298
105.586
117.369
131.894
131.878
116.685
104.395
94.5104
86.5918
80.2699
75.2453
71.342
68.3838
66.2492
64.8638
64.1809
64.1794
64.8624
66.2664
68.3933
71.3358
75.2443
80.2539
86.592
94.5444
104.47
116.816
132.064
132.455
116.618
103.823
93.5311
85.2806
78.6903
73.4588
69.3548
66.2476
63.9974
62.5317
61.8067
61.8032
62.5236
63.9861
66.2269
69.3384
73.4383
78.6595
85.2742
93.5836
103.899
116.74
132.616
133.138
116.795
103.604
92.9991
84.4965
77.7035
72.3128
68.0882
64.8706
62.5322
61.0088
60.2562
60.2497
61.0013
62.5229
64.8338
68.0463
72.262
77.6613
84.482
93.0265
103.662
116.914
133.319
133.62
116.984
103.568
92.786
84.1425
77.2358
71.7471
67.4402
64.1758
61.826
60.2566
59.5016
59.4773
60.2508
61.7794
64.1466
67.4242
71.7043
77.1934
84.1298
92.7953
103.626
117.1
133.784
133.626
116.987
103.572
92.7887
84.1441
77.2364
71.7487
67.4374
64.1715
61.8217
60.2721
59.4963
59.4701
60.2295
61.7701
64.1379
67.4095
71.7221
77.1933
84.1221
92.7979
103.65
117.115
133.773
133.154
116.806
103.614
93.0067
84.5006
77.7033
72.3057
68.0627
64.8437
62.5167
61.01
60.2442
60.2411
60.9764
62.4891
64.8146
68.0325
72.2794
77.6817
84.5033
93.0128
103.671
116.922
133.309
132.476
116.637
103.839
93.5431
85.2866
78.6898
73.4557
69.3514
66.23
63.9764
62.5077
61.7973
61.7771
62.5009
63.9519
66.1969
69.3086
73.4009
78.6477
85.276
93.557
103.913
116.762
132.62
131.906
116.711
104.417
94.5261
86.5993
80.269
75.2414
71.3288
68.3831
66.2336
64.8265
64.1416
64.148
64.8257
66.2155
68.3326
71.2997
75.2129
80.2354
86.5842
94.5431
104.477
116.826
132.054
131.731
117.241
105.512
96.0868
88.5476
82.5304
77.7805
74.0992
71.3164
69.3226
68.0353
67.4041
67.4035
68.0516
69.3336
71.302
74.0851
77.7729
82.5228
88.5459
96.1165
105.585
117.367
131.882
132.196
118.428
107.29
98.3632
91.2605
85.6197
81.19
77.7808
75.2261
73.4127
72.2574
71.6968
71.6925
72.2526
73.4318
75.2432
77.7994
81.2155
85.6461
91.2966
98.4343
107.4
118.589
132.373
133.538
120.468
109.923
101.531
94.8953
89.6607
85.6371
82.5482
80.2672
78.6776
77.6854
77.2094
77.1851
77.6761
78.6755
80.2654
82.5485
85.6445
89.7074
94.94
101.605
110.041
120.635
133.718
135.994
123.57
113.614
105.77
99.6499
94.9031
91.2746
88.5587
86.6054
85.2893
84.5018
84.1426
84.117
84.5035
85.295
86.6134
88.5703
91.293
94.938
99.7062
105.859
113.741
123.747
136.188
139.814
127.975
118.61
111.329
105.759
101.526
98.3949
96.1163
94.5554
93.5733
93.0392
92.8244
92.8188
93.042
93.5861
94.5733
96.1407
98.4296
101.602
105.858
111.459
118.754
128.167
140.026
145.278
133.976
125.247
118.64
113.656
109.972
107.343
105.572
104.484
103.911
103.691
103.652
103.631
103.702
103.929
104.509
105.61
107.395
110.038
113.739
118.754
125.428
134.211
145.535
152.825
142.06
134.043
128.039
123.649
120.552
118.512
117.348
116.828
116.762
116.939
117.13
117.133
116.952
116.783
116.858
117.391
118.584
120.632
123.744
128.167
134.211
142.279
153.068
163.366
152.841
145.358
139.891
136.078
133.623
132.283
131.833
132.043
132.625
133.312
133.793
133.796
133.323
132.646
132.078
131.902
132.369
133.716
136.185
140.026
145.536
153.069
163.636
)


// ************************************************************************* //
