FoamFile
{
    version     2.0;
    format      ascii;
    class       scalarField;
    object      k;
}
// * * * * * * * * * * * * * * * * * * * * * * * * * * * * * * //
3168
(
0.425588
0.417287
0.410902
0.406233
0.403027
0.401042
0.400061
0.399872
0.40025
0.40095
0.401698
0.402198
0.40219
0.401674
0.40091
0.400193
0.399796
0.399965
0.400925
0.402889
0.406074
0.410727
0.417097
0.425395
0.45598
0.448658
0.442803
0.438433
0.435402
0.43352
0.432588
0.432412
0.432781
0.433458
0.434185
0.434671
0.434665
0.434169
0.433427
0.432732
0.432347
0.432507
0.43342
0.435283
0.438291
0.442643
0.448486
0.455802
0.484319
0.477539
0.472185
0.468195
0.465422
0.463689
0.462826
0.462663
0.463002
0.463629
0.4643
0.464746
0.464741
0.464283
0.463603
0.462963
0.462611
0.46276
0.463603
0.465317
0.468069
0.472043
0.477385
0.484161
0.509354
0.503187
0.498324
0.494707
0.492191
0.490616
0.489827
0.48967
0.489968
0.490532
0.491135
0.491537
0.491533
0.491122
0.490512
0.489938
0.489625
0.489767
0.49054
0.492099
0.494596
0.498196
0.503046
0.50921
0.530825
0.525292
0.52092
0.517668
0.515403
0.513984
0.51327
0.513119
0.51338
0.513877
0.514409
0.514765
0.514762
0.514398
0.513858
0.513356
0.513083
0.513218
0.513914
0.515319
0.517567
0.520803
0.525165
0.530692
0.548847
0.543922
0.540025
0.537124
0.535104
0.53384
0.533201
0.533063
0.533289
0.533721
0.534187
0.534496
0.534494
0.534175
0.533704
0.533266
0.533029
0.533154
0.533777
0.535027
0.53703
0.539919
0.543804
0.548723
0.563658
0.559296
0.555851
0.553288
0.551508
0.550395
0.549833
0.549707
0.549902
0.550276
0.550678
0.550946
0.550942
0.550667
0.55026
0.549878
0.549675
0.549787
0.550334
0.551436
0.553202
0.555752
0.559186
0.563543
0.575508
0.571666
0.568651
0.566416
0.564869
0.563904
0.563416
0.563305
0.563469
0.563788
0.564131
0.564361
0.564357
0.56412
0.563772
0.563446
0.563272
0.56337
0.563845
0.5648
0.566334
0.568558
0.571561
0.5754
0.584601
0.58125
0.578651
0.576737
0.575417
0.574596
0.574182
0.574084
0.57422
0.574487
0.574775
0.574967
0.574963
0.574763
0.574472
0.574198
0.574052
0.574136
0.57454
0.575351
0.576659
0.578563
0.581151
0.5845
0.591074
0.588203
0.58602
0.584423
0.583329
0.58265
0.582305
0.582221
0.582329
0.582544
0.582778
0.582934
0.58293
0.582767
0.582529
0.582307
0.582189
0.582261
0.582595
0.583265
0.584348
0.585935
0.588109
0.590978
0.59497
0.592594
0.590837
0.589565
0.588697
0.588158
0.587882
0.587812
0.587891
0.588054
0.588233
0.588353
0.588348
0.588222
0.588039
0.587869
0.587779
0.587839
0.588106
0.588634
0.589492
0.590755
0.592505
0.59488
0.596224
0.594383
0.593079
0.592146
0.591513
0.591118
0.590912
0.590853
0.590901
0.59101
0.591131
0.591214
0.591209
0.591121
0.590995
0.590879
0.59082
0.59087
0.591066
0.591451
0.592075
0.593
0.594298
0.596137
0.594624
0.59339
0.592585
0.592021
0.59164
0.591397
0.591265
0.591217
0.591231
0.59128
0.59134
0.591381
0.591376
0.591329
0.591265
0.59121
0.591185
0.591224
0.591347
0.591579
0.591951
0.592509
0.593308
0.594541
0.589766
0.589249
0.589017
0.58887
0.588772
0.588699
0.588648
0.588611
0.588585
0.588567
0.588555
0.588549
0.588544
0.588545
0.588552
0.588564
0.58858
0.588608
0.588651
0.588712
0.588803
0.588945
0.58917
0.589685
0.580974
0.581337
0.581791
0.582136
0.582369
0.582495
0.582536
0.58251
0.582437
0.582339
0.582244
0.582182
0.582177
0.582234
0.582324
0.582417
0.58248
0.582497
0.582448
0.58231
0.582071
0.581721
0.581261
0.580896
0.56718
0.568658
0.569962
0.570915
0.571552
0.571919
0.572073
0.57206
0.571927
0.571732
0.571533
0.571402
0.571397
0.571523
0.571717
0.571908
0.57203
0.572035
0.571873
0.571494
0.570851
0.569895
0.568584
0.567104
0.546745
0.549666
0.552062
0.553788
0.554938
0.555611
0.555906
0.555907
0.5557
0.555379
0.555049
0.55483
0.554826
0.55504
0.555365
0.555681
0.555879
0.555869
0.555566
0.554882
0.553727
0.551997
0.549595
0.546671
0.5164
0.521389
0.525345
0.528176
0.530057
0.531165
0.53166
0.531682
0.531367
0.530866
0.530348
0.530003
0.529999
0.530339
0.530852
0.531348
0.531654
0.531624
0.531121
0.530003
0.528116
0.525282
0.52132
0.516328
0.471458
0.479245
0.485337
0.489691
0.492583
0.494294
0.495067
0.495116
0.494652
0.4939
0.493121
0.492602
0.492599
0.493112
0.493886
0.494633
0.49509
0.495033
0.494252
0.492531
0.489632
0.485275
0.479178
0.471389
0.405876
0.417103
0.425898
0.432218
0.436432
0.438937
0.440077
0.440163
0.4395
0.438418
0.437295
0.436547
0.436544
0.437286
0.438405
0.439481
0.440138
0.440044
0.438897
0.436382
0.432162
0.42584
0.417039
0.405809
0.314758
0.329177
0.340654
0.349015
0.354643
0.358014
0.359559
0.359685
0.358804
0.357362
0.355864
0.354869
0.354866
0.355856
0.357349
0.358787
0.359662
0.359528
0.357976
0.354598
0.348963
0.3406
0.329119
0.314698
0.198962
0.214517
0.227326
0.236903
0.243464
0.247439
0.249276
0.249435
0.2484
0.246703
0.244945
0.243781
0.243779
0.244939
0.246692
0.248385
0.249415
0.249251
0.247408
0.243425
0.23686
0.227282
0.214471
0.198916
0.0899995
0.100321
0.109317
0.116354
0.121334
0.124417
0.125861
0.12599
0.12518
0.123857
0.122496
0.1216
0.121598
0.122492
0.12385
0.12517
0.125977
0.125845
0.124398
0.12131
0.116328
0.109291
0.100295
0.0899746
0.0277786
0.0314852
0.0348292
0.0375236
0.0394746
0.0407013
0.0412813
0.0413334
0.0410084
0.0404795
0.0399377
0.0395827
0.0395822
0.0399362
0.040477
0.041005
0.0413289
0.0412754
0.0406944
0.039466
0.0375144
0.0348201
0.0314763
0.0277703
0.00574689
0.00653602
0.00725376
0.00783636
0.00826069
0.00852859
0.00865556
0.00866701
0.00859585
0.00848019
0.00836185
0.0082844
0.00828429
0.00836154
0.00847966
0.00859513
0.00866605
0.0086543
0.00852711
0.00825886
0.00783439
0.00725183
0.00653413
0.00574516
0.000771355
0.000869854
0.000958984
0.00103108
0.00108348
0.00111651
0.00113216
0.00113357
0.0011248
0.00111055
0.00109595
0.0010864
0.00108638
0.00109591
0.00111048
0.00112471
0.00113345
0.001132
0.00111633
0.00108325
0.00103084
0.000958742
0.000869617
0.000771136
0.00114018
0.00123763
0.00132218
0.00138847
0.00143559
0.00146487
0.00147862
0.00147984
0.00147213
0.00145955
0.00144662
0.00143812
0.0014381
0.00144658
0.00145949
0.00147204
0.00147973
0.00147847
0.0014647
0.00143537
0.00138823
0.00132193
0.00123738
0.00113994
0.425592
0.45598
0.484321
0.509357
0.530827
0.548849
0.56366
0.57551
0.584604
0.591077
0.594975
0.596228
0.594628
0.589769
0.580977
0.567183
0.546747
0.516402
0.47146
0.405877
0.314759
0.198964
0.0900004
0.0277789
0.00574695
0.000771363
0.00114019
0.417295
0.448664
0.477545
0.503194
0.525299
0.54393
0.559304
0.571673
0.581257
0.588211
0.592601
0.594389
0.593396
0.589255
0.581343
0.568663
0.549671
0.521394
0.479249
0.417107
0.32918
0.21452
0.100323
0.0314858
0.00653613
0.000869868
0.00123764
0.41092
0.442816
0.472198
0.498336
0.520934
0.540039
0.555865
0.568665
0.578665
0.586033
0.590849
0.593089
0.592595
0.589027
0.5818
0.569971
0.552071
0.525354
0.485345
0.425906
0.34066
0.227332
0.10932
0.0348302
0.00725398
0.00095901
0.0013222
0.406262
0.438456
0.468218
0.494728
0.517687
0.537141
0.553305
0.566431
0.576752
0.584438
0.589578
0.592158
0.592032
0.588881
0.582147
0.570925
0.553798
0.528185
0.4897
0.432226
0.349022
0.236909
0.116357
0.0375249
0.00783664
0.00103112
0.00138851
0.403067
0.435436
0.465451
0.492219
0.515427
0.535128
0.55153
0.564889
0.575437
0.583348
0.588715
0.591529
0.591655
0.588785
0.582381
0.571563
0.554948
0.530066
0.492592
0.436441
0.354652
0.243471
0.121338
0.0394761
0.00826102
0.00108352
0.00143563
0.401091
0.43356
0.463726
0.49065
0.514015
0.53387
0.550423
0.563928
0.57462
0.582672
0.588179
0.591138
0.591417
0.588718
0.582512
0.571936
0.555627
0.53118
0.494309
0.438951
0.358026
0.247449
0.124424
0.0407038
0.00852913
0.00111658
0.00146493
0.400119
0.432639
0.462872
0.489869
0.513309
0.533239
0.549866
0.563446
0.574209
0.582331
0.587907
0.590936
0.591288
0.58867
0.582557
0.572093
0.555926
0.531679
0.495086
0.440096
0.359576
0.249291
0.12587
0.0412845
0.00865626
0.00113225
0.0014787
0.399937
0.432471
0.462714
0.48972
0.513167
0.533107
0.549748
0.563341
0.574118
0.582252
0.58784
0.59088
0.591242
0.588634
0.582533
0.572081
0.555928
0.531702
0.495137
0.440183
0.359704
0.249451
0.125999
0.041337
0.00866778
0.00113366
0.00147993
0.400321
0.432847
0.463062
0.490025
0.51343
0.533334
0.549942
0.563505
0.574253
0.582359
0.587919
0.590927
0.591256
0.588609
0.582461
0.571951
0.555723
0.531389
0.494673
0.43952
0.358823
0.248415
0.125189
0.0410119
0.00859661
0.0011249
0.00147222
0.401027
0.433531
0.46369
0.490587
0.513927
0.533767
0.550315
0.563824
0.57452
0.582575
0.588083
0.591037
0.591306
0.588592
0.582363
0.571754
0.555401
0.530888
0.493922
0.438439
0.357381
0.246719
0.123867
0.0404831
0.00848096
0.00111064
0.00145964
0.401782
0.434263
0.464365
0.491192
0.51446
0.534234
0.55072
0.56417
0.57481
0.582811
0.588264
0.591161
0.591369
0.588584
0.582272
0.57156
0.555076
0.530374
0.493147
0.437319
0.355886
0.244964
0.122507
0.0399419
0.00836276
0.00109607
0.00144672
0.402287
0.434753
0.464819
0.491596
0.514818
0.534547
0.550992
0.564403
0.575007
0.582972
0.588389
0.591248
0.591414
0.588582
0.582213
0.571432
0.55486
0.530032
0.492631
0.436575
0.354894
0.243803
0.121613
0.0395874
0.00828541
0.00108652
0.00143824
0.402284
0.434751
0.464818
0.491595
0.514817
0.534547
0.550992
0.564403
0.575006
0.58297
0.588386
0.591245
0.591411
0.588579
0.58221
0.57143
0.554857
0.53003
0.492628
0.436573
0.354892
0.243801
0.121612
0.0395871
0.00828535
0.00108652
0.00143823
0.401775
0.434258
0.46436
0.491188
0.514459
0.534232
0.550718
0.564168
0.574808
0.582809
0.588263
0.59116
0.591367
0.588582
0.582269
0.571558
0.555073
0.530371
0.493144
0.437317
0.355884
0.244962
0.122506
0.0399414
0.00836265
0.00109605
0.00144672
0.401016
0.433523
0.463684
0.490581
0.513923
0.533763
0.550312
0.563821
0.574519
0.582573
0.588081
0.591035
0.591305
0.588591
0.582362
0.571754
0.555401
0.530887
0.493921
0.438438
0.35738
0.246718
0.123867
0.040483
0.00848093
0.00111064
0.00145964
0.400304
0.432834
0.463049
0.490013
0.513421
0.533324
0.549932
0.563495
0.574244
0.582351
0.58791
0.590919
0.591248
0.588601
0.582453
0.571943
0.555716
0.531383
0.494667
0.439515
0.358818
0.248411
0.125187
0.0410109
0.00859641
0.00112487
0.00147219
0.399912
0.432453
0.462699
0.489703
0.513152
0.533092
0.549732
0.563325
0.574102
0.582237
0.587825
0.590865
0.591229
0.588622
0.582522
0.572071
0.555919
0.531693
0.495127
0.440173
0.359695
0.249443
0.125995
0.0413353
0.00866741
0.00113362
0.00147989
0.400086
0.432614
0.462855
0.48985
0.513291
0.53322
0.549848
0.563428
0.574192
0.582314
0.58789
0.590918
0.591271
0.588653
0.582541
0.572078
0.555911
0.531665
0.495072
0.440083
0.359563
0.24928
0.125864
0.0412822
0.00865576
0.00113218
0.00147865
0.40105
0.433529
0.463699
0.490625
0.513992
0.533846
0.5504
0.563905
0.574597
0.582649
0.588157
0.591116
0.591395
0.588697
0.582492
0.571917
0.555608
0.531162
0.494292
0.438935
0.358012
0.247437
0.124416
0.0407011
0.00852853
0.00111651
0.00146486
0.403016
0.435394
0.465417
0.492188
0.515399
0.5351
0.551502
0.564861
0.57541
0.583321
0.588688
0.591504
0.59163
0.588761
0.582358
0.571541
0.554928
0.530047
0.492574
0.436424
0.354636
0.243457
0.12133
0.0394731
0.00826037
0.00108344
0.00143555
0.406201
0.438403
0.468172
0.494684
0.517645
0.537105
0.55327
0.566397
0.576718
0.584405
0.589547
0.592128
0.592003
0.588854
0.582121
0.5709
0.553775
0.528163
0.489678
0.432206
0.349003
0.236893
0.116347
0.0375214
0.00783588
0.00103102
0.00138841
0.410854
0.442755
0.472143
0.498284
0.520886
0.539994
0.555822
0.568623
0.578625
0.585994
0.590812
0.593054
0.592562
0.588995
0.58177
0.569942
0.552043
0.525326
0.485318
0.42588
0.340637
0.227313
0.109309
0.0348264
0.00725316
0.000958909
0.0013221
0.417224
0.448598
0.477484
0.503136
0.525244
0.543876
0.559254
0.571627
0.581213
0.588168
0.592562
0.594352
0.593361
0.589222
0.581311
0.568632
0.549642
0.521366
0.479222
0.417081
0.329157
0.214501
0.100313
0.0314821
0.00653537
0.000869772
0.00123754
0.42552
0.455913
0.484258
0.509298
0.530772
0.548794
0.56361
0.575463
0.58456
0.591036
0.594935
0.596191
0.594593
0.589735
0.580944
0.567152
0.546717
0.516374
0.471433
0.405852
0.314736
0.198946
0.0899906
0.0277756
0.00574627
0.000771277
0.0011401
0.425394
0.455804
0.484162
0.509211
0.530693
0.548725
0.563545
0.575402
0.584502
0.59098
0.594881
0.596139
0.594543
0.589687
0.580898
0.567107
0.546673
0.51633
0.471391
0.405811
0.3147
0.198917
0.0899754
0.0277706
0.00574521
0.000771142
0.00113995
0.417095
0.448487
0.477384
0.50305
0.525167
0.543806
0.559188
0.571564
0.581154
0.588112
0.592507
0.5943
0.593311
0.589173
0.581264
0.568587
0.549598
0.521322
0.47918
0.417041
0.329121
0.214472
0.100296
0.0314766
0.00653419
0.000869625
0.00123739
0.410721
0.442642
0.472043
0.498198
0.520806
0.539918
0.555751
0.568556
0.578561
0.585934
0.590755
0.593
0.592509
0.588944
0.58172
0.569894
0.551996
0.525281
0.485274
0.425839
0.340599
0.227282
0.109291
0.0348201
0.00725183
0.000958743
0.00132194
0.406065
0.438286
0.468066
0.494591
0.517563
0.537026
0.553196
0.566328
0.576653
0.584343
0.589488
0.592071
0.591948
0.5888
0.582069
0.57085
0.553726
0.528116
0.489633
0.432162
0.348964
0.23686
0.116328
0.0375145
0.00783442
0.00103084
0.00138824
0.402874
0.435273
0.46531
0.49209
0.515311
0.535018
0.551425
0.564788
0.575339
0.583253
0.588623
0.591441
0.59157
0.588703
0.582302
0.571487
0.554876
0.529997
0.492525
0.436377
0.354593
0.243422
0.121308
0.0394653
0.00825871
0.00108324
0.00143537
0.400904
0.433404
0.463589
0.490528
0.513901
0.53376
0.550317
0.563828
0.574523
0.582578
0.588089
0.591051
0.591333
0.588638
0.582435
0.571862
0.555556
0.531111
0.494243
0.438888
0.357968
0.247401
0.124394
0.0406929
0.00852679
0.00111629
0.00146467
0.399935
0.432482
0.462743
0.489752
0.513199
0.533132
0.549765
0.563348
0.574114
0.582239
0.587819
0.590851
0.591206
0.588591
0.582482
0.572021
0.555856
0.531612
0.495021
0.440034
0.359519
0.249243
0.12584
0.0412737
0.00865394
0.00113196
0.00147844
0.399756
0.432318
0.462587
0.489603
0.513059
0.533004
0.54965
0.563247
0.574028
0.582165
0.587757
0.5908
0.591166
0.588561
0.582463
0.572014
0.555864
0.531641
0.495078
0.440126
0.359652
0.249407
0.125972
0.0413271
0.00866565
0.0011334
0.0014797
0.400146
0.432696
0.462932
0.489907
0.513323
0.533234
0.549847
0.563415
0.574167
0.582277
0.587841
0.590853
0.591185
0.588541
0.582395
0.571888
0.555663
0.531331
0.494618
0.439467
0.358774
0.248374
0.125164
0.0410026
0.00859463
0.00112465
0.001472
0.400857
0.433385
0.463565
0.490473
0.513824
0.53367
0.550225
0.563738
0.574438
0.582497
0.588009
0.590966
0.591239
0.588528
0.582302
0.571696
0.555345
0.530834
0.49387
0.43839
0.357335
0.246681
0.123844
0.0404745
0.00847914
0.00111042
0.00145944
0.401615
0.43412
0.464244
0.491082
0.514359
0.534137
0.55063
0.564084
0.574729
0.582734
0.58819
0.591091
0.591301
0.588519
0.582209
0.5715
0.555018
0.530318
0.493092
0.437267
0.355839
0.244924
0.122483
0.039933
0.00836086
0.00109583
0.00144652
0.402123
0.434614
0.464697
0.491489
0.514717
0.53445
0.5509
0.564315
0.574923
0.582892
0.588312
0.591175
0.591343
0.588514
0.582149
0.571371
0.554801
0.529976
0.492576
0.436523
0.354846
0.243763
0.121588
0.0395785
0.00828352
0.00108629
0.00143803
0.402121
0.434613
0.464696
0.491486
0.514717
0.534447
0.550897
0.564312
0.57492
0.582888
0.588309
0.591172
0.591341
0.588512
0.582147
0.571369
0.554799
0.529974
0.492575
0.436521
0.354845
0.243762
0.121588
0.0395783
0.00828348
0.00108629
0.00143802
0.40161
0.434118
0.464241
0.49108
0.514357
0.534134
0.550624
0.564078
0.574722
0.582726
0.588183
0.591084
0.591295
0.588513
0.582203
0.571495
0.555013
0.530313
0.493088
0.437264
0.355835
0.244921
0.122481
0.0399323
0.00836071
0.00109581
0.0014465
0.400847
0.43338
0.46356
0.490472
0.513821
0.533666
0.550219
0.563731
0.574432
0.58249
0.588001
0.590959
0.591231
0.58852
0.582295
0.571689
0.555339
0.530827
0.493864
0.438384
0.35733
0.246676
0.123841
0.0404735
0.00847891
0.00111039
0.00145942
0.400131
0.432686
0.462924
0.489902
0.513319
0.533227
0.549841
0.563408
0.574161
0.582271
0.587834
0.590846
0.591178
0.588534
0.582389
0.571882
0.555657
0.531325
0.494612
0.439461
0.358769
0.24837
0.125161
0.0410015
0.0085944
0.00112462
0.00147197
0.399736
0.432301
0.462568
0.48959
0.513047
0.532993
0.54964
0.563238
0.57402
0.582158
0.58775
0.590793
0.591159
0.588555
0.582457
0.572008
0.555858
0.531634
0.495071
0.44012
0.359646
0.249402
0.125969
0.0413259
0.0086654
0.00113337
0.00147967
0.399906
0.432458
0.462716
0.489731
0.51318
0.533115
0.549748
0.563332
0.574101
0.582226
0.587807
0.59084
0.591196
0.588581
0.582472
0.572012
0.555847
0.531603
0.495013
0.440026
0.359512
0.249237
0.125837
0.0412725
0.00865367
0.00113193
0.00147842
0.400866
0.433369
0.463559
0.490502
0.513878
0.533739
0.550297
0.563807
0.574502
0.582559
0.58807
0.591033
0.591316
0.588621
0.582419
0.571847
0.555541
0.531098
0.49423
0.438876
0.357958
0.247392
0.124388
0.0406909
0.00852635
0.00111624
0.00146462
0.402826
0.43523
0.465272
0.492058
0.515281
0.53499
0.551399
0.564763
0.575315
0.58323
0.5886
0.591419
0.591548
0.588683
0.582282
0.571468
0.554858
0.52998
0.492509
0.436362
0.354579
0.24341
0.121301
0.0394627
0.00825815
0.00108317
0.0014353
0.40601
0.438234
0.468023
0.494553
0.517526
0.536993
0.553165
0.566298
0.576624
0.584315
0.58946
0.592045
0.591923
0.588776
0.582046
0.570828
0.553704
0.528095
0.489612
0.432143
0.348945
0.236845
0.116319
0.0375112
0.00783372
0.00103076
0.00138816
0.410659
0.442582
0.471989
0.498148
0.520759
0.539876
0.555712
0.568519
0.578526
0.5859
0.590722
0.592968
0.592479
0.588915
0.581692
0.569867
0.55197
0.525256
0.48525
0.425816
0.340578
0.227265
0.109281
0.0348165
0.00725108
0.000958649
0.00132184
0.417026
0.448419
0.477326
0.502992
0.525111
0.543753
0.559138
0.571518
0.58111
0.58807
0.592468
0.594262
0.593274
0.589137
0.58123
0.568553
0.549565
0.521291
0.47915
0.417013
0.329095
0.214451
0.100284
0.0314726
0.00653335
0.00086952
0.00123728
0.425322
0.455735
0.484097
0.509153
0.530638
0.548672
0.563496
0.575355
0.584458
0.590938
0.594841
0.596101
0.594506
0.589652
0.580864
0.567074
0.546641
0.5163
0.471362
0.405784
0.314676
0.198898
0.0899651
0.0277672
0.00574449
0.000771052
0.00113985
0.425517
0.455914
0.484262
0.509303
0.530775
0.548798
0.563611
0.575464
0.58456
0.591036
0.594935
0.59619
0.594592
0.589735
0.580944
0.567152
0.546717
0.516373
0.471433
0.405851
0.314736
0.198945
0.0899904
0.0277756
0.00574625
0.000771275
0.0011401
0.41722
0.448597
0.477486
0.503142
0.525247
0.543878
0.559254
0.571625
0.581211
0.588167
0.592561
0.594352
0.593361
0.589222
0.581311
0.568632
0.549642
0.521365
0.479222
0.417081
0.329156
0.214501
0.100312
0.0314821
0.00653535
0.000869771
0.00123755
0.410842
0.442747
0.472138
0.498286
0.520884
0.539989
0.555815
0.568616
0.578618
0.585989
0.590808
0.593051
0.592559
0.588993
0.581767
0.56994
0.552041
0.525324
0.485316
0.425879
0.340636
0.227312
0.109309
0.0348262
0.00725312
0.000958905
0.0013221
0.406178
0.438385
0.468156
0.494675
0.517637
0.537092
0.553256
0.566382
0.576704
0.584391
0.589534
0.592116
0.591992
0.588843
0.58211
0.57089
0.553765
0.528153
0.489669
0.432197
0.348996
0.236887
0.116344
0.0375201
0.00783562
0.00103099
0.00138839
0.402977
0.435362
0.46539
0.492163
0.515376
0.535077
0.551478
0.564837
0.575386
0.583298
0.588666
0.591482
0.591609
0.588742
0.58234
0.571525
0.554913
0.530033
0.492561
0.436411
0.354625
0.243448
0.121324
0.0394711
0.00825994
0.00108339
0.00143551
0.400996
0.433482
0.463658
0.490587
0.513956
0.533812
0.550366
0.563873
0.574566
0.582619
0.588129
0.591089
0.59137
0.588673
0.58247
0.571895
0.555588
0.531143
0.494273
0.438917
0.357995
0.247423
0.124408
0.0406979
0.00852786
0.00111643
0.0014648
0.400017
0.432554
0.462799
0.489801
0.513244
0.533174
0.549804
0.563387
0.574154
0.582278
0.587857
0.590888
0.591243
0.588627
0.582517
0.572055
0.555889
0.531644
0.495052
0.440063
0.359545
0.249265
0.125854
0.0412786
0.00865499
0.00113209
0.00147857
0.39983
0.432382
0.462636
0.489644
0.513093
0.533036
0.54968
0.563277
0.574059
0.582197
0.587789
0.590831
0.591196
0.588591
0.582491
0.572042
0.555891
0.531666
0.495102
0.44015
0.359673
0.249424
0.125983
0.041331
0.0086665
0.00113351
0.0014798
0.40021
0.432752
0.462976
0.489942
0.513354
0.533261
0.549874
0.563443
0.574195
0.582304
0.587867
0.590879
0.59121
0.588566
0.582419
0.571911
0.555685
0.531353
0.494638
0.439487
0.358793
0.24839
0.125173
0.0410061
0.00859538
0.00112474
0.00147209
0.400913
0.433434
0.463606
0.490508
0.513849
0.533694
0.550246
0.563758
0.574458
0.582517
0.588028
0.590986
0.591258
0.588547
0.582321
0.571715
0.555364
0.530852
0.493887
0.438406
0.357351
0.246694
0.123852
0.0404775
0.00847976
0.00111049
0.00145951
0.401665
0.434165
0.464279
0.491111
0.514384
0.534158
0.550648
0.5641
0.574744
0.582749
0.588205
0.591106
0.591316
0.588534
0.582224
0.571515
0.555032
0.530332
0.493107
0.437282
0.355852
0.244935
0.12249
0.0399355
0.00836139
0.0010959
0.00144657
0.402166
0.434652
0.46473
0.491515
0.51474
0.534468
0.550917
0.564332
0.574939
0.582908
0.588328
0.59119
0.591359
0.588529
0.582164
0.571385
0.554816
0.52999
0.492591
0.436537
0.35486
0.243774
0.121595
0.0395811
0.00828407
0.00108636
0.00143809
0.402159
0.434646
0.464722
0.49151
0.514736
0.534466
0.550915
0.564329
0.574936
0.582904
0.588325
0.591188
0.591357
0.588528
0.582162
0.571384
0.554814
0.529989
0.492589
0.436535
0.354858
0.243773
0.121595
0.0395808
0.008284
0.00108635
0.00143808
0.401644
0.434147
0.464264
0.491098
0.514373
0.534149
0.550638
0.564092
0.574737
0.582742
0.588199
0.5911
0.59131
0.588528
0.582218
0.571509
0.555026
0.530326
0.4931
0.437275
0.355845
0.24493
0.122486
0.0399343
0.00836113
0.00109586
0.00144654
0.400877
0.433404
0.46358
0.490484
0.51383
0.533675
0.550228
0.56374
0.574441
0.582501
0.588013
0.590971
0.591244
0.588532
0.582307
0.571701
0.55535
0.530838
0.493874
0.438393
0.357338
0.246683
0.123845
0.040475
0.00847924
0.00111043
0.00145944
0.400157
0.432707
0.462938
0.489912
0.513325
0.533234
0.549847
0.563415
0.574168
0.58228
0.587844
0.590856
0.591189
0.588545
0.582399
0.571892
0.555667
0.531335
0.494621
0.43947
0.358777
0.248376
0.125165
0.0410031
0.00859473
0.00112466
0.001472
0.399758
0.432319
0.462581
0.489599
0.513054
0.532999
0.549644
0.563243
0.574024
0.582163
0.587755
0.590799
0.591165
0.588561
0.582462
0.572014
0.555864
0.531639
0.495076
0.440124
0.35965
0.249405
0.125971
0.0413266
0.00866555
0.00113339
0.00147968
0.399925
0.432474
0.462729
0.489739
0.513186
0.533122
0.549757
0.56334
0.574109
0.582235
0.587815
0.590847
0.591203
0.588587
0.582478
0.572016
0.555851
0.531607
0.495016
0.440029
0.359515
0.249239
0.125838
0.0412729
0.00865376
0.00113194
0.00147842
0.400881
0.433382
0.463569
0.490508
0.513883
0.533745
0.550304
0.563816
0.574512
0.582568
0.588079
0.591041
0.591323
0.588628
0.582425
0.571852
0.555545
0.531101
0.494232
0.438878
0.357959
0.247393
0.124389
0.0406911
0.00852641
0.00111625
0.00146462
0.402839
0.43524
0.465278
0.492061
0.515284
0.534992
0.551402
0.564767
0.57532
0.583235
0.588606
0.591424
0.591554
0.588688
0.582287
0.571473
0.554862
0.529983
0.492512
0.436364
0.354581
0.243412
0.121302
0.039463
0.00825822
0.00108317
0.0014353
0.406019
0.438241
0.468027
0.494557
0.517529
0.536994
0.553166
0.566298
0.576625
0.584317
0.589463
0.592047
0.591925
0.588778
0.582047
0.570828
0.553705
0.528095
0.489612
0.432142
0.348945
0.236845
0.116319
0.0375111
0.0078337
0.00103075
0.00138815
0.410663
0.442583
0.471991
0.498151
0.520762
0.539878
0.555712
0.568519
0.578525
0.585899
0.590722
0.592968
0.592479
0.588916
0.581694
0.569869
0.551972
0.525258
0.485252
0.425818
0.34058
0.227266
0.109282
0.0348167
0.00725112
0.000958654
0.00132185
0.417028
0.448423
0.477325
0.502994
0.525114
0.543755
0.559141
0.571519
0.581111
0.588072
0.592469
0.594263
0.593275
0.589139
0.581231
0.568555
0.549567
0.521293
0.479152
0.417014
0.329097
0.214453
0.100285
0.0314729
0.00653342
0.000869528
0.00123729
0.425323
0.455735
0.484096
0.509151
0.530637
0.548672
0.563496
0.575356
0.584458
0.590938
0.594842
0.596102
0.594507
0.589653
0.580865
0.567074
0.546642
0.5163
0.471362
0.405784
0.314676
0.198899
0.0899654
0.0277673
0.00574451
0.000771055
0.00113986
0.405546
0.397138
0.390584
0.385409
0.381582
0.378952
0.377342
0.376569
0.376435
0.376721
0.377176
0.37752
0.377511
0.377148
0.376673
0.376367
0.376479
0.377231
0.378819
0.38143
0.385239
0.390399
0.396945
0.405346
0.397145
0.38801
0.380639
0.374788
0.370251
0.366855
0.364446
0.362875
0.361985
0.361608
0.361553
0.361611
0.3616
0.36152
0.361552
0.361906
0.362773
0.364322
0.366709
0.370085
0.374605
0.380443
0.387808
0.396942
0.3906
0.380649
0.37242
0.365783
0.360497
0.356359
0.353213
0.350924
0.349366
0.348408
0.347911
0.347722
0.34771
0.347873
0.348344
0.349277
0.350811
0.353077
0.356201
0.360319
0.365589
0.372215
0.380438
0.390392
0.385436
0.374808
0.365794
0.358365
0.352316
0.347447
0.343602
0.340654
0.338494
0.337022
0.336138
0.335736
0.335722
0.336096
0.336952
0.338397
0.340531
0.343456
0.347279
0.352129
0.358162
0.365582
0.374593
0.385225
0.38162
0.370284
0.360521
0.352329
0.34554
0.339969
0.335466
0.331911
0.329212
0.327287
0.326067
0.325478
0.325463
0.32602
0.327212
0.329109
0.331783
0.335313
0.339794
0.345345
0.35212
0.360304
0.370065
0.381409
0.379
0.3669
0.356397
0.347475
0.339984
0.333755
0.328643
0.324538
0.321357
0.319035
0.317523
0.316776
0.31676
0.317475
0.318958
0.321251
0.324405
0.328485
0.333573
0.339784
0.347262
0.356176
0.36668
0.37879
0.377401
0.364503
0.353264
0.343644
0.335496
0.32866
0.322996
0.318401
0.314795
0.312129
0.310367
0.309488
0.309472
0.310318
0.312051
0.314689
0.318265
0.322836
0.328476
0.335293
0.343428
0.353042
0.364284
0.377193
0.376637
0.362943
0.350988
0.34071
0.331958
0.324572
0.318418
0.313392
0.309422
0.306462
0.30449
0.303499
0.303483
0.304443
0.306384
0.309314
0.313256
0.318256
0.324387
0.331754
0.340492
0.350766
0.362724
0.376432
0.376512
0.362063
0.349442
0.338563
0.329273
0.321407
0.31483
0.309439
0.305163
0.301961
0.299818
0.298737
0.298721
0.299772
0.301883
0.305056
0.309303
0.314667
0.321221
0.329068
0.338346
0.34922
0.361847
0.37631
0.376806
0.361696
0.348495
0.337105
0.327363
0.3191
0.31218
0.306497
0.301979
0.298588
0.296312
0.29516
0.295145
0.296266
0.29851
0.301872
0.30636
0.312015
0.318914
0.327157
0.336888
0.348275
0.361482
0.376608
0.377269
0.36165
0.348009
0.336234
0.326155
0.317603
0.310434
0.304542
0.299853
0.296329
0.293961
0.29276
0.292745
0.293915
0.29625
0.299746
0.304405
0.310271
0.317416
0.32595
0.336017
0.34779
0.361439
0.377073
0.37762
0.361716
0.34783
0.335842
0.325579
0.316871
0.309569
0.303566
0.298787
0.295193
0.292776
0.291547
0.291532
0.292731
0.295115
0.29868
0.30343
0.309407
0.316685
0.325377
0.335628
0.347612
0.361507
0.377425
0.377617
0.361713
0.347826
0.335838
0.325575
0.316867
0.309566
0.303563
0.298785
0.295189
0.292774
0.291544
0.291532
0.29273
0.295115
0.298679
0.303429
0.309406
0.316683
0.325374
0.335624
0.34761
0.361504
0.377423
0.377261
0.36164
0.347997
0.336221
0.326142
0.317591
0.310424
0.304534
0.299847
0.296322
0.293956
0.292759
0.292744
0.293912
0.29625
0.299743
0.304401
0.310265
0.317409
0.325942
0.336009
0.347781
0.361431
0.377066
0.376792
0.361679
0.348476
0.337084
0.327341
0.319081
0.312164
0.306484
0.30197
0.29858
0.296308
0.295159
0.295141
0.296262
0.298506
0.301866
0.306352
0.312006
0.3189
0.327142
0.336873
0.34826
0.361469
0.376596
0.376491
0.362039
0.349414
0.338535
0.329245
0.32138
0.314808
0.309421
0.305149
0.301949
0.299812
0.298733
0.298718
0.299767
0.301876
0.305046
0.309291
0.314651
0.321202
0.329047
0.338324
0.349199
0.361827
0.376293
0.376609
0.36291
0.350953
0.340674
0.331924
0.324539
0.318389
0.313369
0.309402
0.306444
0.304477
0.30349
0.303476
0.304435
0.306372
0.3093
0.313239
0.318235
0.324362
0.331726
0.340464
0.350738
0.362698
0.376408
0.377364
0.364463
0.353222
0.343602
0.335456
0.328621
0.322962
0.31837
0.31477
0.312106
0.310349
0.309472
0.309457
0.310303
0.312033
0.314668
0.318243
0.322808
0.328445
0.33526
0.343393
0.353007
0.364249
0.377161
0.378956
0.366852
0.356348
0.347427
0.339938
0.333711
0.328603
0.324502
0.321324
0.319006
0.317495
0.316752
0.316739
0.317452
0.318933
0.321225
0.324376
0.328452
0.333537
0.339745
0.34722
0.356134
0.366638
0.378751
0.381568
0.370229
0.360466
0.352274
0.345487
0.33992
0.33542
0.331868
0.329171
0.327249
0.326031
0.325446
0.32543
0.325988
0.327179
0.329074
0.331746
0.335272
0.33975
0.345299
0.352072
0.360254
0.370016
0.381361
0.385376
0.374748
0.365733
0.358304
0.352258
0.347392
0.34355
0.340604
0.338446
0.336977
0.336095
0.335694
0.335681
0.336055
0.336911
0.338355
0.340487
0.343409
0.34723
0.352076
0.358107
0.365526
0.374537
0.38517
0.390536
0.380584
0.372356
0.365719
0.360436
0.3563
0.353157
0.35087
0.349313
0.348357
0.347861
0.347674
0.347662
0.347826
0.348297
0.349229
0.350762
0.353025
0.356147
0.360262
0.365529
0.372154
0.380377
0.390332
0.397079
0.387944
0.380574
0.374724
0.370189
0.366795
0.364389
0.36282
0.361932
0.361556
0.361503
0.361562
0.361551
0.361471
0.361503
0.361857
0.362722
0.364269
0.366653
0.370026
0.374543
0.38038
0.387745
0.396879
0.405478
0.397073
0.39052
0.385347
0.381523
0.378895
0.377288
0.376518
0.376386
0.376674
0.37713
0.377475
0.377466
0.377104
0.376629
0.376321
0.376432
0.377181
0.378767
0.381374
0.385179
0.390337
0.396881
0.405279
)
