FoamFile
{
    version     2.0;
    format      ascii;
    class       scalarField;
    object      nut;
}
// * * * * * * * * * * * * * * * * * * * * * * * * * * * * * * //
3168
(
0.00221595
0.00231208
0.00238853
0.00244455
0.00248206
0.00250377
0.00251241
0.00251095
0.00250243
0.00249011
0.00247832
0.00247073
0.0024707
0.00247838
0.0024896
0.00250142
0.00250975
0.0025108
0.0025017
0.0024795
0.00244144
0.00238486
0.0023086
0.00221289
0.00190298
0.00197425
0.00203316
0.00207739
0.00210725
0.00212501
0.00213233
0.00213182
0.00212584
0.00211705
0.00210813
0.00210225
0.00210231
0.00210788
0.00211672
0.00212532
0.00213123
0.00213136
0.00212371
0.00210563
0.00207546
0.00203105
0.00197199
0.00190088
0.00163695
0.00169632
0.00174493
0.00178128
0.00180608
0.00182081
0.00182723
0.00182709
0.00182243
0.00181529
0.00180813
0.0018034
0.00180339
0.00180798
0.0018151
0.00182211
0.00182665
0.00182662
0.00182
0.00180507
0.00178008
0.00174355
0.0016949
0.00163558
0.00140643
0.00145767
0.00149937
0.00153049
0.00155172
0.00156442
0.00157003
0.00157008
0.00156622
0.00156028
0.00155423
0.00155026
0.00155023
0.00155415
0.00156014
0.00156603
0.0015698
0.00156963
0.00156391
0.00155109
0.00152973
0.00149852
0.00145678
0.00140559
0.00120398
0.00124873
0.00128511
0.00131221
0.00133074
0.00134184
0.00134684
0.00134694
0.00134369
0.00133859
0.00133338
0.00132996
0.00132994
0.00133336
0.0013385
0.00134359
0.0013468
0.00134656
0.00134151
0.00133032
0.00131173
0.00128456
0.00124818
0.00120343
0.00102519
0.00106438
0.00109622
0.00111997
0.00113623
0.001146
0.00115043
0.0011506
0.00114781
0.00114338
0.00113887
0.00113588
0.00113586
0.00113884
0.00114335
0.00114772
0.00115048
0.00115024
0.00114578
0.00113595
0.00111966
0.00109588
0.00106403
0.00102483
0.000867391
0.000901641
0.000929449
0.000950215
0.000964447
0.000973045
0.000976956
0.00097718
0.000974774
0.000970911
0.000966972
0.000964371
0.000964364
0.000966946
0.0009709
0.000974692
0.000977078
0.000976841
0.000972902
0.000964296
0.000950004
0.000929224
0.000901391
0.000867167
0.000728708
0.000758421
0.00078258
0.000800671
0.000813092
0.000820615
0.000824066
0.000824273
0.000822189
0.000818858
0.000815452
0.000813184
0.000813189
0.00081543
0.000818847
0.000822142
0.000824206
0.000823971
0.000820519
0.000812985
0.000800529
0.000782427
0.000758257
0.000728547
0.000607477
0.000633078
0.000653947
0.000669603
0.000680373
0.000686907
0.000689913
0.000690106
0.00068833
0.000685457
0.000682513
0.000680563
0.000680556
0.000682494
0.000685443
0.000688295
0.000690073
0.000689844
0.000686829
0.000680279
0.000669502
0.000653845
0.000632963
0.000607377
0.000502196
0.000524083
0.000541972
0.000555412
0.000564682
0.00057033
0.000572922
0.000573108
0.000571595
0.000569131
0.0005666
0.000564926
0.000564919
0.000566584
0.000569122
0.000571565
0.00057308
0.000572879
0.000570272
0.000564619
0.000555339
0.000541893
0.000524
0.000502121
0.000411347
0.00042991
0.000445127
0.000456589
0.000464507
0.000469336
0.000471559
0.000471734
0.000470442
0.000468352
0.000466196
0.000464773
0.000464765
0.000466185
0.00046834
0.000470425
0.000471708
0.000471526
0.000469294
0.00046446
0.000456535
0.000445068
0.000429848
0.000411292
0.000333469
0.000349082
0.000361925
0.00037162
0.000378329
0.00038242
0.000384314
0.000384466
0.00038338
0.000381615
0.000379792
0.000378589
0.000378585
0.000379784
0.000381605
0.000383367
0.000384447
0.000384289
0.000382389
0.000378292
0.000371579
0.000361882
0.000349036
0.000333427
0.000267144
0.000280162
0.00029091
0.000299039
0.000304671
0.000308111
0.000309705
0.000309839
0.000308931
0.000307452
0.000305924
0.000304917
0.000304914
0.000305919
0.000307445
0.000308921
0.000309823
0.000309686
0.000308087
0.000304643
0.000299008
0.000290877
0.000280128
0.000267112
0.000211033
0.000221786
0.000230696
0.000237448
0.000242132
0.000244995
0.000246325
0.000246438
0.000245686
0.000244459
0.00024319
0.000242354
0.000242352
0.000243186
0.000244453
0.000245679
0.000246427
0.00024631
0.000244977
0.00024211
0.000237424
0.000230672
0.000221761
0.000211008
0.000163899
0.000172688
0.000179995
0.000185543
0.000189396
0.000191753
0.000192849
0.000192945
0.000192327
0.00019132
0.000190277
0.000189591
0.000189589
0.000190274
0.000191315
0.000192322
0.000192936
0.000192838
0.00019174
0.000189378
0.000185525
0.000179977
0.000172668
0.00016388
0.000124619
0.000131713
0.00013763
0.00014213
0.000145259
0.000147175
0.000148068
0.000148147
0.000147646
0.000146828
0.000145982
0.000145425
0.000145423
0.00014598
0.000146824
0.000147642
0.00014814
0.000148059
0.000147165
0.000145246
0.000142116
0.000137617
0.000131698
0.000124605
9.21959e-05
9.78319e-05
0.000102547
0.00010614
0.000108642
0.000110175
0.00011089
0.000110954
0.000110554
0.0001099
0.000109225
0.000108779
0.000108778
0.000109223
0.000109898
0.000110551
0.000110949
0.000110884
0.000110168
0.000108632
0.00010613
0.000102538
9.78211e-05
9.21855e-05
6.49695e-05
6.9472e-05
7.32611e-05
7.61603e-05
7.81848e-05
7.94281e-05
8.00085e-05
8.00606e-05
7.97365e-05
7.92063e-05
7.86592e-05
7.82982e-05
7.82977e-05
7.86579e-05
7.92044e-05
7.97339e-05
8.0057e-05
8.00035e-05
7.94223e-05
7.81774e-05
7.61525e-05
7.32535e-05
6.94639e-05
6.49615e-05
4.3356e-05
4.66923e-05
4.9519e-05
5.16915e-05
5.32133e-05
5.415e-05
5.45878e-05
5.46275e-05
5.43835e-05
5.39842e-05
5.35723e-05
5.33008e-05
5.33005e-05
5.35715e-05
5.39828e-05
5.43816e-05
5.4625e-05
5.45843e-05
5.41458e-05
5.32082e-05
5.1686e-05
4.95136e-05
4.66866e-05
4.33503e-05
2.69671e-05
2.92889e-05
3.12717e-05
3.28041e-05
3.38817e-05
3.45467e-05
3.48581e-05
3.48865e-05
3.47133e-05
3.44297e-05
3.41374e-05
3.39448e-05
3.39447e-05
3.41368e-05
3.44287e-05
3.4712e-05
3.48848e-05
3.48558e-05
3.45439e-05
3.38783e-05
3.28004e-05
3.12681e-05
2.92851e-05
2.69634e-05
1.50527e-05
1.65525e-05
1.78483e-05
1.88582e-05
1.95724e-05
2.00149e-05
2.02225e-05
2.02416e-05
2.01262e-05
1.99374e-05
1.97429e-05
1.9615e-05
1.96149e-05
1.97426e-05
1.99367e-05
2.01253e-05
2.02405e-05
2.02211e-05
2.00131e-05
1.95703e-05
1.88559e-05
1.7846e-05
1.65501e-05
1.50504e-05
6.46821e-06
7.39316e-06
8.20583e-06
8.84658e-06
9.30314e-06
9.58725e-06
9.72093e-06
9.73328e-06
9.65901e-06
9.53761e-06
9.41274e-06
9.33068e-06
9.33061e-06
9.41252e-06
9.53724e-06
9.65849e-06
9.73259e-06
9.72004e-06
9.5862e-06
9.30184e-06
8.84519e-06
8.20444e-06
7.39176e-06
6.46689e-06
1.82556e-06
2.17325e-06
2.49349e-06
2.75529e-06
2.94664e-06
3.06769e-06
3.12517e-06
3.13051e-06
3.09855e-06
3.04651e-06
2.99326e-06
2.95842e-06
2.95839e-06
2.99317e-06
3.04636e-06
3.09834e-06
3.13023e-06
3.12481e-06
3.06727e-06
2.94612e-06
2.75473e-06
2.49295e-06
2.17273e-06
1.82509e-06
2.96574e-07
3.63056e-07
4.26746e-07
4.80527e-07
5.20798e-07
5.46689e-07
5.59098e-07
5.60257e-07
5.53349e-07
5.42147e-07
5.30743e-07
5.23316e-07
5.2331e-07
5.30724e-07
5.42115e-07
5.53305e-07
5.60198e-07
5.59021e-07
5.466e-07
5.20689e-07
4.80414e-07
4.26638e-07
3.62956e-07
2.96489e-07
2.5093e-08
3.10336e-08
3.68158e-08
4.17655e-08
4.55107e-08
4.79359e-08
4.91031e-08
4.92123e-08
4.85623e-08
4.75099e-08
4.64411e-08
4.57465e-08
4.57459e-08
4.64394e-08
4.7507e-08
4.85582e-08
4.92069e-08
4.9096e-08
4.79277e-08
4.55007e-08
4.17551e-08
3.68061e-08
3.10247e-08
2.50855e-08
9.69156e-10
1.19052e-09
1.40521e-09
1.58859e-09
1.72719e-09
1.81689e-09
1.86004e-09
1.86408e-09
1.84005e-09
1.80115e-09
1.76162e-09
1.73593e-09
1.73591e-09
1.76156e-09
1.80104e-09
1.83991e-09
1.86389e-09
1.85978e-09
1.81659e-09
1.72683e-09
1.58822e-09
1.40485e-09
1.1902e-09
9.68881e-10
2.21239e-10
2.61637e-10
2.99298e-10
3.3052e-10
3.53617e-10
3.68361e-10
3.754e-10
3.76059e-10
3.72149e-10
3.65793e-10
3.59307e-10
3.55076e-10
3.55072e-10
3.59297e-10
3.65777e-10
3.72127e-10
3.76031e-10
3.75363e-10
3.68316e-10
3.53563e-10
3.30462e-10
2.99242e-10
2.61584e-10
2.21192e-10
0.00221604
0.00190297
0.00163689
0.00140641
0.00120396
0.00102518
0.000867394
0.000728704
0.000607482
0.000502197
0.000411351
0.000333472
0.000267146
0.000211034
0.0001639
0.00012462
9.21964e-05
6.49698e-05
4.33561e-05
2.69673e-05
1.50528e-05
6.46826e-06
1.82557e-06
2.96577e-07
2.50933e-08
9.69166e-10
2.2124e-10
0.00231181
0.00197411
0.00169627
0.00145765
0.00124876
0.00106442
0.000901654
0.000758423
0.000633093
0.000524088
0.000429916
0.000349086
0.000280165
0.000221789
0.00017269
0.000131714
9.78327e-05
6.94726e-05
4.66927e-05
2.92892e-05
1.65526e-05
7.39324e-06
2.17328e-06
3.63062e-07
3.10341e-08
1.19054e-09
2.61641e-10
0.00238822
0.00203306
0.00174489
0.00149937
0.00128511
0.00109624
0.000929457
0.000782611
0.000653961
0.00054198
0.000445136
0.000361932
0.000290914
0.0002307
0.000179998
0.000137632
0.000102549
7.32623e-05
4.95198e-05
3.12722e-05
1.78486e-05
8.20599e-06
2.49355e-06
4.26758e-07
3.68169e-08
1.40524e-09
2.99303e-10
0.00244445
0.00207736
0.00178131
0.00153054
0.00131225
0.00112001
0.000950261
0.000800707
0.000669616
0.000555428
0.000456601
0.000371629
0.000299044
0.000237452
0.000185546
0.000142132
0.000106142
7.61615e-05
5.16924e-05
3.28047e-05
1.88586e-05
8.8468e-06
2.75537e-06
4.80544e-07
4.1767e-08
1.58865e-09
3.30527e-10
0.00248245
0.0021075
0.00180618
0.00155181
0.00133082
0.00113627
0.000964495
0.000813127
0.000680392
0.000564703
0.000464522
0.000378338
0.000304679
0.000242137
0.000189399
0.000145261
0.000108643
7.81858e-05
5.32141e-05
3.38822e-05
1.95728e-05
9.30335e-06
2.94673e-06
5.20817e-07
4.55125e-08
1.72726e-09
3.53627e-10
0.00250438
0.00212517
0.00182098
0.00156455
0.00134195
0.00114609
0.000973131
0.000820658
0.000686936
0.000570348
0.000469351
0.000382433
0.000308121
0.000245002
0.000191759
0.000147179
0.000110178
7.943e-05
5.41514e-05
3.45477e-05
2.00155e-05
9.58761e-06
3.06785e-06
5.46721e-07
4.79389e-08
1.81699e-09
3.68376e-10
0.00251292
0.00213285
0.00182747
0.0015702
0.00134694
0.00115052
0.000977053
0.000824124
0.000689951
0.000572947
0.00047158
0.00038433
0.000309718
0.000246334
0.000192856
0.000148073
0.000110894
8.00112e-05
5.45898e-05
3.48595e-05
2.02234e-05
9.72143e-06
3.12538e-06
5.5914e-07
4.9107e-08
1.86018e-09
3.7542e-10
0.0025118
0.00213231
0.0018274
0.00157029
0.00134711
0.00115071
0.000977253
0.000824337
0.000690152
0.00057314
0.000471755
0.000384483
0.000309851
0.000246448
0.000192952
0.000148151
0.000110958
8.00635e-05
5.46296e-05
3.4888e-05
2.02425e-05
9.73381e-06
3.13073e-06
5.60303e-07
4.92166e-08
1.86424e-09
3.76082e-10
0.00250317
0.00212645
0.00182272
0.00156646
0.00134386
0.00114793
0.000974863
0.000822263
0.000688377
0.000571618
0.000470464
0.000383397
0.000308943
0.000245696
0.000192335
0.000147652
0.000110559
7.97396e-05
5.43857e-05
3.47147e-05
2.01271e-05
9.65953e-06
3.09877e-06
5.53395e-07
4.85665e-08
1.84021e-09
3.72171e-10
0.00249147
0.00211754
0.00181564
0.00156051
0.00133877
0.00114353
0.000971007
0.000818926
0.000685511
0.000569163
0.000468377
0.000381632
0.000307464
0.000244468
0.000191326
0.000146832
0.000109904
7.92093e-05
5.39863e-05
3.44311e-05
1.99382e-05
9.53815e-06
3.04673e-06
5.42193e-07
4.75142e-08
1.8013e-09
3.65816e-10
0.0024794
0.00210854
0.00180845
0.00155448
0.00133358
0.00113898
0.000967057
0.000815496
0.000682549
0.000566632
0.000466216
0.000379809
0.000305938
0.000243201
0.000190286
0.000145989
0.00010923
7.86629e-05
5.3575e-05
3.41391e-05
1.9744e-05
9.41339e-06
2.99352e-06
5.30797e-07
4.64461e-08
1.7618e-09
3.59333e-10
0.00247189
0.00210278
0.00180378
0.00155052
0.00133017
0.00113601
0.000964469
0.000813254
0.000680616
0.000564967
0.000464798
0.000378609
0.000304933
0.000242366
0.000189599
0.000145431
0.000108784
7.83024e-05
5.33038e-05
3.39468e-05
1.96162e-05
9.33141e-06
2.95871e-06
5.23376e-07
4.57521e-08
1.73613e-09
3.55105e-10
0.00247221
0.0021028
0.00180381
0.00155052
0.00133015
0.00113601
0.000964473
0.000813263
0.000680603
0.00056496
0.000464798
0.000378609
0.000304931
0.000242365
0.000189599
0.000145431
0.000108784
7.83018e-05
5.33034e-05
3.39466e-05
1.96161e-05
9.33134e-06
2.95869e-06
5.23373e-07
4.57517e-08
1.73612e-09
3.55104e-10
0.00247967
0.00210864
0.00180846
0.00155447
0.00133356
0.00113899
0.000967064
0.000815513
0.000682548
0.000566629
0.000466217
0.000379809
0.000305938
0.0002432
0.000190285
0.000145988
0.000109229
7.86621e-05
5.35744e-05
3.41388e-05
1.97438e-05
9.41328e-06
2.99348e-06
5.3079e-07
4.64455e-08
1.76178e-09
3.59331e-10
0.00249122
0.00211733
0.00181558
0.00156049
0.00133876
0.0011435
0.000970997
0.000818917
0.0006855
0.00056916
0.000468373
0.000381631
0.000307465
0.000244468
0.000191326
0.000146833
0.000109904
7.92093e-05
5.39862e-05
3.4431e-05
1.99382e-05
9.53811e-06
3.04672e-06
5.42191e-07
4.7514e-08
1.80129e-09
3.65815e-10
0.00250276
0.00212613
0.00182266
0.0015664
0.00134383
0.0011479
0.000974821
0.000822239
0.000688368
0.000571615
0.000470458
0.000383393
0.000308939
0.000245693
0.000192332
0.000147649
0.000110557
7.97386e-05
5.4385e-05
3.47142e-05
2.01268e-05
9.65939e-06
3.09871e-06
5.53382e-07
4.85654e-08
1.84017e-09
3.72165e-10
0.00251133
0.00213211
0.00182721
0.0015702
0.00134705
0.00115067
0.000977214
0.0008243
0.000690127
0.000573123
0.000471742
0.000384474
0.000309845
0.000246443
0.000192949
0.000148149
0.000110956
8.00622e-05
5.46286e-05
3.48872e-05
2.0242e-05
9.73354e-06
3.13062e-06
5.6028e-07
4.92145e-08
1.86416e-09
3.76072e-10
0.00251246
0.0021323
0.00182723
0.00157006
0.00134686
0.00115045
0.000976984
0.000824076
0.000689919
0.000572932
0.000471567
0.000384319
0.000309709
0.000246327
0.000192851
0.000148069
0.000110891
8.00091e-05
5.45883e-05
3.48584e-05
2.02227e-05
9.72107e-06
3.12523e-06
5.5911e-07
4.91042e-08
1.86008e-09
3.75406e-10
0.00250345
0.00212469
0.00182065
0.00156434
0.00134182
0.00114599
0.000973051
0.000820614
0.000686905
0.000570322
0.000469332
0.00038242
0.00030811
0.000244995
0.000191753
0.000147174
0.000110175
7.94274e-05
5.41496e-05
3.45465e-05
2.00148e-05
9.58721e-06
3.06768e-06
5.46686e-07
4.79356e-08
1.81688e-09
3.68358e-10
0.00248123
0.00210663
0.00180571
0.00155155
0.00133063
0.00113616
0.000964415
0.000813073
0.00068036
0.000564685
0.000464508
0.000378326
0.000304668
0.000242129
0.000189393
0.000145257
0.000108641
7.81833e-05
5.32123e-05
3.3881e-05
1.9572e-05
9.30291e-06
2.94655e-06
5.20779e-07
4.55089e-08
1.72713e-09
3.53608e-10
0.00244303
0.00207646
0.00178076
0.00153019
0.00131204
0.00111988
0.000950173
0.00080064
0.000669585
0.000555405
0.000456582
0.000371613
0.000299033
0.000237443
0.000185539
0.000142128
0.000106139
7.61586e-05
5.16903e-05
3.28033e-05
1.88577e-05
8.84626e-06
2.75516e-06
4.805e-07
4.1763e-08
1.5885e-09
3.30505e-10
0.00238683
0.00203199
0.00174423
0.00149897
0.00128488
0.00109611
0.000929363
0.000782542
0.000653927
0.000541951
0.000445115
0.000361914
0.000290901
0.00023069
0.00017999
0.000137626
0.000102545
7.32588e-05
4.95173e-05
3.12705e-05
1.78475e-05
8.2054e-06
2.49332e-06
4.26712e-07
3.68128e-08
1.4051e-09
2.99281e-10
0.00231018
0.001973
0.00169558
0.00145723
0.00124849
0.00106423
0.000901528
0.000758349
0.000633038
0.000524053
0.00042989
0.000349068
0.000280151
0.000221778
0.000172682
0.000131708
9.78278e-05
6.94692e-05
4.66903e-05
2.92876e-05
1.65516e-05
7.39267e-06
2.17307e-06
3.63022e-07
3.10305e-08
1.19041e-09
2.61619e-10
0.00221458
0.0019019
0.00163623
0.001406
0.00120372
0.00102502
0.000867302
0.000728644
0.000607443
0.000502172
0.00041133
0.000333455
0.000267133
0.000211024
0.000163892
0.000124614
9.2192e-05
6.49666e-05
4.33539e-05
2.69658e-05
1.50519e-05
6.46773e-06
1.82539e-06
2.96543e-07
2.50903e-08
9.69057e-10
2.21222e-10
0.00221293
0.0019009
0.00163559
0.00140559
0.00120344
0.00102484
0.000867176
0.000728565
0.000607382
0.000502121
0.000411292
0.000333428
0.000267112
0.000211009
0.000163881
0.000124606
9.21859e-05
6.49619e-05
4.33505e-05
2.69635e-05
1.50505e-05
6.46693e-06
1.8251e-06
2.96491e-07
2.50857e-08
9.68889e-10
2.21193e-10
0.00230845
0.00197201
0.00169491
0.00145681
0.0012482
0.00106404
0.000901399
0.000758261
0.000632977
0.000524006
0.000429853
0.000349039
0.000280129
0.000221762
0.00017267
0.000131699
9.78215e-05
6.94642e-05
4.66867e-05
2.92853e-05
1.65502e-05
7.39179e-06
2.17275e-06
3.6296e-07
3.1025e-08
1.19021e-09
2.61587e-10
0.00238504
0.00203096
0.00174356
0.00149854
0.00128458
0.00109588
0.000929218
0.000782437
0.000653843
0.000541896
0.000445069
0.000361881
0.000290876
0.000230671
0.000179976
0.000137616
0.000102537
7.32531e-05
4.95133e-05
3.12679e-05
1.78459e-05
8.20442e-06
2.49295e-06
4.26638e-07
3.68061e-08
1.40485e-09
2.99243e-10
0.00244124
0.00207524
0.00178003
0.00152971
0.00131172
0.00111967
0.000950002
0.000800524
0.000669497
0.000555344
0.000456536
0.000371577
0.000299006
0.000237423
0.000185523
0.000142115
0.00010613
7.61523e-05
5.1686e-05
3.28004e-05
1.88558e-05
8.84518e-06
2.75474e-06
4.80415e-07
4.17553e-08
1.58822e-09
3.30464e-10
0.0024789
0.00210547
0.00180492
0.00155102
0.00133029
0.00113595
0.000964249
0.000812952
0.000680272
0.000564608
0.000464451
0.000378284
0.000304637
0.000242105
0.000189375
0.000145243
0.000108631
7.81761e-05
5.32073e-05
3.38777e-05
1.957e-05
9.30169e-06
2.94607e-06
5.2068e-07
4.54999e-08
1.7268e-09
3.53561e-10
0.00250055
0.00212317
0.00181982
0.0015638
0.00134146
0.00114574
0.000972883
0.000820479
0.000686805
0.000570249
0.000469278
0.000382378
0.000308078
0.00024497
0.000191734
0.000147161
0.000110165
7.94201e-05
5.41444e-05
3.45431e-05
2.00126e-05
9.58592e-06
3.06716e-06
5.4658e-07
4.79259e-08
1.81653e-09
3.6831e-10
0.00250979
0.0021308
0.00182631
0.00156949
0.00134648
0.0011502
0.000976818
0.000823945
0.00068981
0.000572848
0.000471506
0.000384273
0.000309675
0.000246301
0.000192832
0.000148054
0.000110881
8.00012e-05
5.45828e-05
3.48548e-05
2.02205e-05
9.71973e-06
3.12469e-06
5.58999e-07
4.90939e-08
1.85971e-09
3.75355e-10
0.00250854
0.00213057
0.00182632
0.00156961
0.00134667
0.00115041
0.000977025
0.000824155
0.000690029
0.000573051
0.000471684
0.00038443
0.000309811
0.000246418
0.000192929
0.000148135
0.000110946
8.00545e-05
5.46233e-05
3.48838e-05
2.02399e-05
9.73226e-06
3.13011e-06
5.60173e-07
4.92047e-08
1.86381e-09
3.76022e-10
0.00250029
0.00212456
0.00182168
0.0015658
0.00134345
0.00114765
0.000974624
0.000822092
0.000688257
0.00057154
0.000470404
0.000383348
0.000308906
0.000245668
0.000192314
0.000147636
0.000110547
7.97311e-05
5.43798e-05
3.47108e-05
2.01246e-05
9.65808e-06
3.09819e-06
5.53274e-07
4.85554e-08
1.83981e-09
3.72116e-10
0.00248842
0.00211581
0.00181466
0.00155988
0.00133835
0.00114322
0.000970801
0.000818775
0.000685395
0.000569083
0.000468314
0.000381586
0.00030743
0.000244442
0.000191306
0.000146818
0.000109893
7.92012e-05
5.39807e-05
3.44274e-05
1.9936e-05
9.5368e-06
3.04619e-06
5.42082e-07
4.7504e-08
1.80094e-09
3.65765e-10
0.00247651
0.00210713
0.00180753
0.00155386
0.00133316
0.00113873
0.000966885
0.000815357
0.000682442
0.000566547
0.000466156
0.000379763
0.000305903
0.000243174
0.000190265
0.000145973
0.000109218
7.86541e-05
5.35689e-05
3.41352e-05
1.97416e-05
9.41195e-06
2.99295e-06
5.30682e-07
4.64356e-08
1.76142e-09
3.59281e-10
0.00246906
0.0021014
0.00180287
0.00154993
0.00132975
0.00113573
0.000964275
0.000813109
0.000680503
0.00056488
0.000464736
0.000378561
0.000304895
0.000242338
0.000189578
0.000145416
0.000108773
7.82937e-05
5.32978e-05
3.39429e-05
1.96138e-05
9.32998e-06
2.95815e-06
5.23263e-07
4.57417e-08
1.73576e-09
3.55054e-10
0.0024693
0.00210129
0.00180289
0.00154993
0.00132975
0.00113573
0.000964265
0.000813098
0.000680489
0.000564871
0.00046473
0.000378559
0.000304893
0.000242337
0.000189577
0.000145415
0.000108772
7.82934e-05
5.32975e-05
3.39428e-05
1.96137e-05
9.32996e-06
2.95814e-06
5.23261e-07
4.57415e-08
1.73575e-09
3.55052e-10
0.00247641
0.0021071
0.0018075
0.00155387
0.00133315
0.00113869
0.000966853
0.000815357
0.000682432
0.000566543
0.000466148
0.000379757
0.000305898
0.000243171
0.000190263
0.000145971
0.000109217
7.86533e-05
5.35684e-05
3.41348e-05
1.97414e-05
9.41184e-06
2.99291e-06
5.30673e-07
4.64348e-08
1.7614e-09
3.59277e-10
0.00248798
0.00211585
0.00181462
0.00155987
0.00133834
0.00114322
0.000970795
0.00081877
0.000685395
0.000569074
0.000468305
0.000381579
0.000307424
0.000244437
0.000191303
0.000146816
0.000109892
7.92e-05
5.39799e-05
3.4427e-05
1.99357e-05
9.53663e-06
3.04613e-06
5.42069e-07
4.75028e-08
1.80089e-09
3.65759e-10
0.00250001
0.00212459
0.00182161
0.00156576
0.00134341
0.00114761
0.000974627
0.000822094
0.000688263
0.000571533
0.000470396
0.000383344
0.000308902
0.000245664
0.000192311
0.000147634
0.000110545
7.97298e-05
5.43789e-05
3.47103e-05
2.01243e-05
9.65791e-06
3.09812e-06
5.5326e-07
4.85541e-08
1.83976e-09
3.7211e-10
0.00250804
0.00213034
0.00182618
0.00156952
0.00134661
0.00115037
0.000977008
0.000824165
0.000690026
0.000573045
0.000471681
0.000384427
0.000309808
0.000246415
0.000192927
0.000148133
0.000110944
8.00532e-05
5.46224e-05
3.48832e-05
2.02396e-05
9.73208e-06
3.13003e-06
5.60158e-07
4.92032e-08
1.86376e-09
3.76015e-10
0.00250886
0.00213047
0.00182612
0.00156935
0.00134639
0.00115012
0.000976763
0.000823925
0.000689808
0.000572837
0.000471498
0.000384268
0.00030967
0.000246298
0.000192829
0.000148052
0.000110878
8e-05
5.4582e-05
3.48543e-05
2.02202e-05
9.71955e-06
3.12462e-06
5.58982e-07
4.90924e-08
1.85966e-09
3.75348e-10
0.00250017
0.00212284
0.00181952
0.00156363
0.00134137
0.00114567
0.00097282
0.000820449
0.000686783
0.000570234
0.000469261
0.000382366
0.000308069
0.000244964
0.000191729
0.000147158
0.000110162
7.94183e-05
5.41432e-05
3.45422e-05
2.00121e-05
9.58561e-06
3.06704e-06
5.46554e-07
4.79235e-08
1.81644e-09
3.68298e-10
0.00247786
0.0021048
0.00180453
0.00155079
0.00133015
0.00113585
0.000964199
0.000812916
0.000680245
0.000564591
0.000464436
0.000378271
0.000304626
0.000242097
0.00018937
0.000145239
0.000108627
7.81738e-05
5.32057e-05
3.38767e-05
1.95693e-05
9.30128e-06
2.9459e-06
5.20647e-07
4.54968e-08
1.72669e-09
3.53546e-10
0.00243958
0.00207443
0.00177956
0.00152943
0.00131155
0.00111955
0.000949933
0.000800476
0.000669458
0.00055531
0.000456511
0.000371561
0.000298994
0.000237413
0.000185516
0.000142111
0.000106126
7.61495e-05
5.16839e-05
3.2799e-05
1.8855e-05
8.84466e-06
2.75453e-06
4.80375e-07
4.17516e-08
1.58809e-09
3.30445e-10
0.0023835
0.00203011
0.001743
0.00149819
0.00128436
0.00109575
0.000929129
0.000782385
0.000653805
0.00054186
0.000445046
0.000361863
0.000290863
0.00023066
0.000179968
0.000137609
0.000102532
7.32497e-05
4.9511e-05
3.12664e-05
1.78449e-05
8.20385e-06
2.49273e-06
4.26596e-07
3.68023e-08
1.40472e-09
2.99223e-10
0.00230702
0.00197102
0.00169433
0.00145642
0.00124795
0.00106388
0.000901288
0.000758181
0.000632916
0.000523964
0.000429824
0.000349017
0.000280113
0.000221749
0.00017266
0.000131692
9.7816e-05
6.946e-05
4.66839e-05
2.92834e-05
1.6549e-05
7.39114e-06
2.17251e-06
3.62915e-07
3.1021e-08
1.19006e-09
2.61565e-10
0.00221141
0.00189992
0.00163497
0.00140521
0.00120321
0.00102471
0.000867076
0.000728485
0.000607332
0.000502084
0.000411267
0.000333408
0.000267097
0.000210997
0.000163872
0.000124599
9.21807e-05
6.49582e-05
4.3348e-05
2.69619e-05
1.50495e-05
6.46638e-06
1.82491e-06
2.96456e-07
2.50826e-08
9.68776e-10
2.21175e-10
0.00221466
0.00190204
0.00163633
0.00140607
0.00120374
0.00102504
0.000867297
0.000728641
0.000607443
0.000502169
0.000411328
0.000333454
0.000267132
0.000211024
0.000163892
0.000124614
9.21918e-05
6.49666e-05
4.33539e-05
2.69657e-05
1.50518e-05
6.46772e-06
1.82538e-06
2.96543e-07
2.50903e-08
9.69056e-10
2.21222e-10
0.00231062
0.00197341
0.00169576
0.00145734
0.00124853
0.00106428
0.000901552
0.00075835
0.000633038
0.000524052
0.000429889
0.000349067
0.000280151
0.000221778
0.000172681
0.000131708
9.78278e-05
6.94691e-05
4.66902e-05
2.92875e-05
1.65516e-05
7.39264e-06
2.17306e-06
3.6302e-07
3.10304e-08
1.19041e-09
2.6162e-10
0.00238661
0.00203227
0.00174441
0.00149907
0.00128492
0.00109611
0.000929372
0.000782535
0.000653916
0.000541951
0.000445111
0.000361913
0.0002909
0.000230688
0.00017999
0.000137626
0.000102544
7.32585e-05
4.95172e-05
3.12704e-05
1.78475e-05
8.20535e-06
2.49331e-06
4.2671e-07
3.68126e-08
1.40509e-09
2.99281e-10
0.00244257
0.00207655
0.0017808
0.00153023
0.00131205
0.00111988
0.00095016
0.000800623
0.000669569
0.000555388
0.000456571
0.000371604
0.000299026
0.000237438
0.000185535
0.000142124
0.000106136
7.61569e-05
5.16892e-05
3.28026e-05
1.88573e-05
8.84603e-06
2.75508e-06
4.80485e-07
4.17616e-08
1.58846e-09
3.30501e-10
0.00248024
0.00210656
0.00180566
0.00155149
0.00133061
0.00113614
0.000964385
0.000813052
0.000680326
0.000564652
0.000464483
0.000378309
0.000304656
0.00024212
0.000189387
0.000145252
0.000108637
7.8181e-05
5.32108e-05
3.388e-05
1.95715e-05
9.30257e-06
2.94642e-06
5.20753e-07
4.55066e-08
1.72704e-09
3.53597e-10
0.0025019
0.00212425
0.00182041
0.0015642
0.00134174
0.00114592
0.000972989
0.000820567
0.000686864
0.000570291
0.000469308
0.000382401
0.000308096
0.000244984
0.000191745
0.000147169
0.000110171
7.94243e-05
5.41473e-05
3.4545e-05
2.00139e-05
9.58668e-06
3.06747e-06
5.46644e-07
4.79319e-08
1.81674e-09
3.68342e-10
0.0025109
0.00213166
0.00182688
0.00156983
0.0013467
0.00115034
0.000976901
0.00082401
0.000689881
0.000572898
0.000471539
0.000384298
0.000309694
0.000246317
0.000192843
0.000148063
0.000110887
8.00057e-05
5.45859e-05
3.48569e-05
2.02218e-05
9.72048e-06
3.125e-06
5.59062e-07
4.90998e-08
1.85993e-09
3.75386e-10
0.0025093
0.00213131
0.00182675
0.00156989
0.00134684
0.00115052
0.000977111
0.00082422
0.000690079
0.00057309
0.000471714
0.000384452
0.000309828
0.00024643
0.000192938
0.000148141
0.00011095
8.0058e-05
5.46258e-05
3.48854e-05
2.02409e-05
9.73287e-06
3.13036e-06
5.60225e-07
4.92094e-08
1.86398e-09
3.76047e-10
0.00250081
0.00212521
0.0018221
0.00156603
0.00134357
0.00114773
0.000974715
0.00082215
0.000688305
0.000571564
0.000470424
0.000383365
0.00030892
0.000245678
0.000192321
0.000147641
0.000110551
7.97342e-05
5.43819e-05
3.47122e-05
2.01255e-05
9.65863e-06
3.09841e-06
5.5332e-07
4.85596e-08
1.83996e-09
3.72138e-10
0.00248926
0.00211644
0.00181498
0.00156009
0.00133847
0.0011433
0.000970869
0.000818813
0.000685424
0.000569108
0.00046833
0.000381598
0.00030744
0.000244449
0.000191312
0.000146823
0.000109897
7.92039e-05
5.39826e-05
3.44287e-05
1.99368e-05
9.53727e-06
3.04638e-06
5.4212e-07
4.75075e-08
1.80106e-09
3.65782e-10
0.00247745
0.00210748
0.00180784
0.00155405
0.00133326
0.00113876
0.000966905
0.000815395
0.000682461
0.000566565
0.00046617
0.000379773
0.000305911
0.00024318
0.00019027
0.000145977
0.000109221
7.86564e-05
5.35705e-05
3.41363e-05
1.97423e-05
9.41237e-06
2.99311e-06
5.30715e-07
4.64386e-08
1.76153e-09
3.59295e-10
0.00246954
0.00210178
0.00180313
0.00155008
0.00132983
0.00113577
0.000964299
0.00081313
0.000680524
0.0005649
0.00046475
0.000378573
0.000304904
0.000242345
0.000189584
0.00014542
0.000108776
7.82962e-05
5.32995e-05
3.39441e-05
1.96145e-05
9.3304e-06
2.95832e-06
5.23296e-07
4.57447e-08
1.73586e-09
3.55067e-10
0.0024694
0.00210159
0.00180309
0.00155006
0.00132983
0.00113578
0.00096432
0.000813125
0.000680514
0.000564892
0.000464745
0.000378571
0.000304904
0.000242345
0.000189583
0.00014542
0.000108776
7.8296e-05
5.32994e-05
3.3944e-05
1.96144e-05
9.33037e-06
2.9583e-06
5.23292e-07
4.57443e-08
1.73585e-09
3.55065e-10
0.00247684
0.00210723
0.00180767
0.00155397
0.00133322
0.00113877
0.000966904
0.000815373
0.000682456
0.000566559
0.000466166
0.000379771
0.000305909
0.000243179
0.000190269
0.000145976
0.00010922
7.86555e-05
5.35698e-05
3.41358e-05
1.97419e-05
9.41218e-06
2.99304e-06
5.30699e-07
4.64371e-08
1.76148e-09
3.59287e-10
0.00248869
0.00211608
0.00181477
0.00155994
0.0013384
0.00114324
0.000970829
0.000818794
0.000685403
0.000569093
0.000468319
0.00038159
0.000307433
0.000244445
0.000191309
0.00014682
0.000109895
7.92021e-05
5.39812e-05
3.44277e-05
1.99361e-05
9.53689e-06
3.04623e-06
5.42089e-07
4.75046e-08
1.80096e-09
3.65766e-10
0.00250018
0.00212479
0.00182175
0.00156582
0.00134346
0.00114763
0.000974623
0.000822093
0.000688256
0.000571537
0.000470405
0.000383352
0.00030891
0.000245671
0.000192316
0.000147637
0.000110548
7.97319e-05
5.43803e-05
3.47111e-05
2.01248e-05
9.65819e-06
3.09822e-06
5.53281e-07
4.8556e-08
1.83983e-09
3.72116e-10
0.00250794
0.00213051
0.00182624
0.00156958
0.00134665
0.00115038
0.000977013
0.000824163
0.000690023
0.000573046
0.000471685
0.000384432
0.000309812
0.000246419
0.00019293
0.000148136
0.000110946
8.00545e-05
5.46232e-05
3.48837e-05
2.02398e-05
9.73222e-06
3.13009e-06
5.60168e-07
4.92041e-08
1.86379e-09
3.76018e-10
0.00250898
0.0021306
0.0018262
0.00156939
0.00134641
0.00115014
0.00097677
0.000823916
0.000689808
0.000572848
0.000471507
0.000384274
0.000309675
0.000246302
0.000192832
0.000148054
0.00011088
8.00007e-05
5.45825e-05
3.48546e-05
2.02204e-05
9.71964e-06
3.12465e-06
5.58988e-07
4.90929e-08
1.85968e-09
3.75348e-10
0.00250006
0.0021229
0.00181955
0.00156365
0.00134136
0.00114569
0.00097284
0.00082047
0.0006868
0.00057025
0.000469273
0.000382374
0.000308075
0.000244968
0.000191732
0.00014716
0.000110163
7.94188e-05
5.41435e-05
3.45424e-05
2.00122e-05
9.58568e-06
3.06706e-06
5.46557e-07
4.79238e-08
1.81645e-09
3.68298e-10
0.00247799
0.00210476
0.00180458
0.0015508
0.00133018
0.00113586
0.000964215
0.000812915
0.00068024
0.000564592
0.00046444
0.000378276
0.000304631
0.000242101
0.000189372
0.000145241
0.000108629
7.81746e-05
5.32062e-05
3.38769e-05
1.95695e-05
9.30135e-06
2.94593e-06
5.20651e-07
4.54972e-08
1.7267e-09
3.53546e-10
0.00243972
0.00207452
0.00177955
0.00152942
0.00131154
0.00111955
0.000949929
0.000800479
0.000669467
0.000555319
0.000456521
0.000371567
0.000298997
0.000237416
0.000185518
0.000142111
0.000106126
7.61493e-05
5.16839e-05
3.2799e-05
1.8855e-05
8.84466e-06
2.75453e-06
4.80374e-07
4.17515e-08
1.58809e-09
3.30444e-10
0.0023835
0.00202999
0.00174296
0.00149818
0.00128436
0.00109577
0.000929138
0.000782368
0.000653798
0.000541861
0.000445047
0.000361865
0.000290864
0.000230662
0.00017997
0.000137611
0.000102534
7.32504e-05
4.95114e-05
3.12666e-05
1.7845e-05
8.2039e-06
2.49275e-06
4.26599e-07
3.68025e-08
1.40472e-09
2.99223e-10
0.00230699
0.00197096
0.00169427
0.0014564
0.00124795
0.0010639
0.000901291
0.000758182
0.000632918
0.000523966
0.000429827
0.000349019
0.000280114
0.00022175
0.000172661
0.000131692
9.78164e-05
6.94604e-05
4.66841e-05