FoamFile
{
    version     2.0;
    format      ascii;
    class       scalarField;
    object      omega;
}
// * * * * * * * * * * * * * * * * * * * * * * * * * * * * * * //
3168
(
192.057
180.482
172.032
166.179
162.376
160.175
159.234
159.251
159.945
161.017
162.085
162.785
162.784
162.072
161.034
159.986
159.297
159.298
160.261
162.488
166.326
172.222
180.671
192.235
239.613
227.255
217.79
211.05
206.621
204.008
202.871
202.837
203.581
204.746
205.958
206.765
206.756
205.974
204.764
203.608
202.863
202.925
204.086
206.723
211.178
217.938
227.428
239.785
295.868
281.515
270.605
262.843
257.696
254.661
253.294
253.224
254.057
255.402
256.785
257.706
257.705
256.797
255.414
254.08
253.257
253.342
254.727
257.783
262.949
270.737
281.66
296.019
362.161
345.2
332.356
323.235
317.191
313.608
311.986
311.875
312.834
314.388
316.0
317.068
317.07
316.006
314.401
312.854
311.904
312.027
313.663
317.26
323.322
332.459
345.314
362.276
440.892
420.66
405.351
394.502
387.304
383.044
381.092
380.95
382.067
383.894
385.793
387.054
387.056
385.792
383.905
382.078
380.965
381.132
383.085
387.364
394.568
405.433
420.745
440.984
535.361
511.02
492.626
479.589
470.946
465.831
463.478
463.293
464.616
466.793
469.051
470.559
470.564
469.054
466.789
464.632
463.309
463.514
465.863
470.993
479.638
492.681
511.08
535.429
649.832
620.309
598.044
582.277
571.839
565.642
562.802
562.545
564.132
566.762
569.486
571.301
571.301
569.491
566.753
564.156
562.57
562.821
565.663
571.854
582.316
598.082
620.36
649.867
789.765
753.759
726.636
707.427
694.717
687.172
683.702
683.396
685.327
688.505
691.802
694.013
694.005
691.807
688.495
685.339
683.412
683.725
687.181
694.724
707.45
726.659
753.783
789.791
962.343
918.133
884.86
861.312
845.738
836.497
832.253
831.879
834.223
838.108
842.145
844.841
844.843
842.152
838.104
834.232
831.871
832.269
836.511
845.757
861.325
884.863
918.144
962.334
1176.98
1122.35
1081.27
1052.23
1033.02
1021.6
1016.38
1015.9
1018.78
1023.57
1028.55
1031.88
1031.88
1028.56
1023.56
1018.79
1015.89
1016.38
1021.61
1033.02
1052.24
1081.27
1122.35
1176.97
1446.4
1378.41
1327.35
1291.24
1267.36
1253.17
1246.68
1246.07
1249.65
1255.58
1261.77
1265.89
1265.91
1261.78
1255.58
1249.65
1246.07
1246.67
1253.17
1267.35
1291.23
1327.34
1378.41
1446.37
1787.94
1702.7
1638.68
1593.42
1563.49
1545.73
1537.58
1536.81
1541.29
1548.71
1556.46
1561.62
1561.63
1556.47
1548.71
1541.29
1536.81
1537.57
1545.72
1563.48
1593.4
1638.66
1702.68
1787.91
2225.86
2118.03
2037.01
1979.74
1941.9
1919.43
1909.12
1908.15
1913.8
1923.16
1932.96
1939.48
1939.49
1932.96
1923.16
1913.79
1908.14
1909.11
1919.42
1941.88
1979.72
2036.98
2117.99
2225.81
2794.66
2656.83
2553.22
2480.0
2431.62
2402.91
2389.72
2388.47
2395.68
2407.63
2420.14
2428.47
2428.47
2420.14
2407.63
2395.66
2388.45
2389.7
2402.88
2431.59
2479.96
2553.17
2656.78
2794.61
3544.71
3366.41
3232.26
3137.48
3074.87
3037.74
3020.68
3019.05
3028.36
3043.8
3059.98
3070.73
3070.74
3059.97
3043.8
3028.34
3019.03
3020.66
3037.7
3074.85
3137.43
3232.19
3366.34
3544.63
4551.3
4317.4
4141.27
4016.85
3934.7
3885.98
3863.58
3861.44
3873.65
3893.89
3915.09
3929.19
3929.2
3915.08
3893.89
3873.62
3861.42
3863.56
3885.93
3934.66
4016.79
4141.18
4317.32
4551.2
5930.25
5618.48
5383.48
5217.52
5107.93
5042.97
5013.11
5010.24
5026.5
5053.47
5081.71
5100.51
5100.52
5081.71
5053.46
5026.47
5010.2
5013.08
5042.9
5107.89
5217.42
5383.36
5618.37
5930.12
7866.72
7443.37
7123.8
6898.09
6749.06
6660.69
6620.1
6616.19
6638.28
6674.96
6713.32
6738.88
6738.88
6713.31
6674.94
6638.27
6616.14
6620.05
6660.62
6748.99
6897.97
7123.64
7443.23
7866.57
10649.0
10066.3
9625.43
9313.67
9107.76
8985.6
8929.48
8924.09
8954.58
9005.29
9058.27
9093.6
9093.57
9058.26
9005.26
8954.55
8923.99
8929.44
8985.54
9107.64
9313.54
9625.2
10066.1
10648.8
14722.4
13914.7
13301.5
12867.3
12580.2
12409.7
12331.3
12323.7
12366.2
12437.0
12510.9
12560.2
12560.2
12510.9
12437.0
12366.2
12323.6
12331.2
12409.5
12580.0
12867.1
13301.2
13914.4
14722.1
20863.9
19719.3
18850.2
18234.6
17827.4
17585.4
17474.2
17463.3
17523.7
17624.0
17728.9
17798.7
17798.6
17728.8
17623.9
17523.6
17463.2
17474.0
17585.2
17827.0
18234.2
18849.7
19718.8
20863.4
30760.0
29015.6
27703.0
26779.0
26170.1
25809.1
25643.3
25627.0
25716.9
25866.3
26022.7
26126.9
26126.8
26022.7
25866.2
25716.7
25626.8
25643.0
25808.7
26169.6
26778.4
27702.3
29014.8
30759.2
49299.8
46162.0
43841.0
42229.2
41177.1
40557.2
40273.4
40245.6
40399.3
40655.4
40923.9
41103.0
41102.9
40923.8
40655.3
40399.1
40245.3
40272.9
40556.7
41176.4
42228.3
43840.1
46160.9
49298.8
93664.9
86722.8
81615.8
78088.3
75796.4
74450.6
73835.5
73775.9
74109.4
74665.2
75248.7
75638.1
75638.1
75248.6
74665.0
74109.1
73775.6
73835.1
74450.0
75795.7
78087.5
81615.0
86721.9
93664.1
229024.0
210611.0
197029.0
187627.0
181511.0
177916.0
176273.0
176115.0
177007.0
178493.0
180053.0
181093.0
181093.0
180053.0
178493.0
177007.0
176114.0
176273.0
177916.0
181511.0
187627.0
197028.0
210611.0
229023.0
795904.0
730650.0
682451.0
649055.0
627308.0
614521.0
608674.0
608111.0
611287.0
616578.0
622128.0
625831.0
625831.0
622128.0
616578.0
611287.0
608111.0
608674.0
614520.0
627308.0
649054.0
682451.0
730650.0
795904.0
5153630.0
4730320.0
4417590.0
4200880.0
4059740.0
3976740.0
3938790.0
3935130.0
3955750.0
3990100.0
4026140.0
4050180.0
4050180.0
4026140.0
3990100.0
3955750.0
3935130.0
3938790.0
3976740.0
4059740.0
4200880.0
4417590.0
4730320.0
5153630.0
192.051
239.615
295.879
362.168
440.903
535.37
649.832
789.772
962.34
1176.98
1446.39
1787.94
2225.86
2794.66
3544.71
4551.29
5930.24
7866.72
10649.0
14722.4
20863.9
30760.0
49299.8
93664.9
229024.0
795904.0
5153630.0
180.506
227.274
281.526
345.208
420.657
511.011
620.309
753.765
918.122
1122.35
1378.41
1702.7
2118.02
2656.83
3366.4
4317.39
5618.48
7443.39
10066.4
13914.7
19719.3
29015.7
46162.0
86722.9
210611.0
730650.0
4730320.0
172.061
217.808
270.617
332.364
405.361
492.629
598.053
726.626
884.862
1081.28
1327.35
1638.68
2037.01
2553.22
3232.25
4141.26
5383.47
7123.79
9625.42
13301.6
18850.2
27703.1
43841.1
81615.9
197029.0
682451.0
4417590.0
166.197
211.064
262.851
323.238
394.502
479.587
582.266
707.414
861.317
1052.23
1291.23
1593.41
1979.75
2480.0
3137.48
4016.85
5217.51
6898.09
9313.7
12867.3
18234.6
26779.1
42229.3
78088.4
187628.0
649055.0
4200880.0
162.367
206.612
257.698
317.19
387.302
470.951
571.833
694.713
845.743
1033.02
1267.35
1563.49
1941.9
2431.62
3074.88
3934.72
5107.98
6749.11
9107.82
12580.3
17827.4
26170.2
41177.2
75796.5
181511.0
627308.0
4059740.0
160.156
204.012
254.658
313.604
383.036
465.818
565.62
687.165
836.496
1021.61
1253.18
1545.73
1919.43
2402.91
3037.74
3885.98
5042.98
6660.74
8985.65
12409.7
17585.5
25809.3
40557.4
74450.7
177916.0
614521.0
3976740.0
159.225
202.846
253.285
311.98
381.092
463.478
562.78
683.691
832.247
1016.38
1246.67
1537.57
1909.12
2389.72
3020.68
3863.59
5013.13
6620.11
8929.5
12331.3
17474.2
25643.4
40273.6
73835.8
176273.0
608674.0
3938790.0
159.223
202.818
253.209
311.866
380.94
463.284
562.544
683.386
831.872
1015.9
1246.07
1536.81
1908.15
2388.47
3019.06
3861.46
5010.27
6616.23
8924.1
12323.7
17463.4
25627.2
40245.9
73776.2
176115.0
608111.0
3935130.0
159.926
203.554
254.049
312.823
382.056
464.605
564.122
685.31
834.213
1018.79
1249.66
1541.29
1913.8
2395.68
3028.36
3873.65
5026.5
6638.3
8954.61
12366.3
17523.8
25717.1
40399.6
74109.7
177007.0
611287.0
3955750.0
160.96
204.734
255.387
314.375
383.88
466.77
566.747
688.492
838.09
1023.56
1255.58
1548.71
1923.17
2407.65
3043.83
3893.93
5053.52
6674.99
9005.33
12437.1
17624.1
25866.5
40655.7
74665.5
178493.0
616578.0
3990100.0
162.048
205.954
256.776
315.985
385.773
469.046
569.48
691.811
842.153
1028.55
1261.78
1556.47
1932.97
2420.15
3059.99
3915.1
5081.73
6713.35
9058.32
12511.0
17729.0
26023.0
40924.3
75249.0
180053.0
622128.0
4026140.0
162.745
206.752
257.692
317.052
387.032
470.549
571.291
694.006
844.833
1031.87
1265.9
1561.63
1939.49
2428.48
3070.76
3929.22
5100.55
6738.9
9093.62
12560.2
17798.8
26127.1
41103.4
75638.5
181094.0
625831.0
4050180.0
162.723
206.749
257.686
317.052
387.038
470.547
571.287
693.997
844.848
1031.88
1265.9
1561.63
1939.49
2428.48
3070.75
3929.21
5100.56
6738.94
9093.66
12560.3
17798.8
26127.1
41103.4
75638.5
181094.0
625831.0
4050180.0
162.028
205.942
256.771
315.985
385.778
469.042
569.475
691.796
842.151
1028.56
1261.78
1556.47
1932.97
2420.15
3059.99
3915.11
5081.75
6713.38
9058.35
12511.0
17729.0
26023.0
40924.3
75249.0
180053.0
622128.0
4026140.0
160.972
204.75
255.392
314.376
383.881
466.779
566.75
688.496
838.102
1023.57
1255.58
1548.71
1923.16
2407.64
3043.82
3893.91
5053.5
6674.99
9005.32
12437.1
17624.1
25866.6
40655.7
74665.5
178493.0
616578.0
3990100.0
159.945
203.578
254.052
312.827
382.058
464.61
564.136
685.318
834.211
1018.78
1249.65
1541.29
1913.8
2395.68
3028.36
3873.66
5026.52
6638.3
8954.6
12366.3
17523.8
25717.0
40399.6
74109.6
177007.0
611287.0
3955750.0
159.243
202.829
253.227
311.874
380.946
463.288
562.551
683.398
831.878
1015.9
1246.07
1536.82
1908.15
2388.47
3019.05
3861.46
5010.25
6616.19
8924.08
12323.7
17463.4
25627.2
40245.8
73776.1
176115.0
608111.0
3935130.0
159.241
202.887
253.309
311.996
381.103
463.487
562.801
683.709
832.26
1016.38
1246.67
1537.57
1909.11
2389.72
3020.68
3863.6
5013.12
6620.11
8929.5
12331.3
17474.2
25643.3
40273.4
73835.6
176273.0
608674.0
3938790.0
160.199
204.043
254.688
313.63
383.057
465.837
565.643
687.174
836.502
1021.62
1253.18
1545.73
1919.43
2402.9
3037.73
3885.98
5042.97
6660.72
8985.64
12409.7
17585.4
25809.1
40557.2
74450.5
177916.0
614521.0
3976740.0
162.426
206.678
257.747
317.223
387.333
470.971
571.851
694.723
845.744
1033.0
1267.34
1563.47
1941.88
2431.6
3074.86
3934.68
5107.92
6749.06
9107.75
12580.2
17827.3
26170.0
41177.0
75796.3
181511.0
627308.0
4059740.0
166.269
211.13
262.905
323.283
394.535
479.608
582.283
707.43
861.306
1052.22
1291.22
1593.4
1979.73
2479.98
3137.45
4016.82
5217.46
6898.03
9313.64
12867.2
18234.5
26778.9
42229.0
78088.1
187627.0
649055.0
4200880.0
172.134
217.893
270.689
332.418
405.398
492.644
598.068
726.636
884.847
1081.27
1327.33
1638.66
2036.99
2553.19
3232.23
4141.23
5383.42
7123.76
9625.38
13301.5
18850.1
27702.8
43840.8
81615.6
197028.0
682451.0
4417590.0
180.602
227.369
281.605
345.269
420.702
511.053
620.341
753.778
918.133
1122.35
1378.4
1702.68
2118.0
2656.8
3366.37
4317.36
5618.46
7443.33
10066.3
13914.6
19719.1
29015.4
46161.6
86722.5
210611.0
730650.0
4730320.0
192.145
239.715
295.961
362.231
440.944
535.397
649.843
789.773
962.33
1176.96
1446.37
1787.92
2225.83
2794.64
3544.69
4551.27
5930.2
7866.64
10648.9
14722.3
20863.7
30759.7
49299.4
93664.6
229023.0
795904.0
5153630.0
192.231
239.783
296.017
362.276
440.982
535.425
649.862
789.775
962.331
1176.97
1446.37
1787.91
2225.82
2794.61
3544.64
4551.2
5930.11
7866.54
10648.8
14722.1
20863.4
30759.2
49298.8
93664.1
229023.0
795904.0
5153630.0
180.682
227.426
281.657
345.308
420.74
511.076
620.356
753.782
918.128
1122.34
1378.39
1702.68
2117.99
2656.78
3366.33
4317.31
5618.37
7443.24
10066.2
13914.4
19718.8
29014.9
46161.0
86722.0
210611.0
730650.0
4730320.0
172.208
217.947
270.736
332.456
405.43
492.678
598.085
726.648
884.863
1081.27
1327.33
1638.66
2036.98
2553.18
3232.21
4141.2
5383.38
7123.68
9625.26
13301.3
18849.8
27702.4
43840.2
81615.0
197028.0
682451.0
4417590.0
166.336
211.197
262.953
323.323
394.567
479.627
582.311
707.447
861.323
1052.22
1291.22
1593.4
1979.72
2479.97
3137.45
4016.81
5217.45
6897.98
9313.55
12867.1
18234.3
26778.5
42228.4
78087.6
187627.0
649054.0
4200880.0
162.522
206.735
257.8
317.268
387.367
470.989
571.87
694.736
845.748
1033.02
1267.35
1563.48
1941.88
2431.6
3074.86
3934.69
5107.91
6749.04
9107.71
12580.1
17827.1
26169.6
41176.4
75795.7
181511.0
627308.0
4059740.0
160.327
204.13
254.745
313.676
383.092
465.865
565.656
687.193
836.515
1021.62
1253.18
1545.73
1919.43
2402.9
3037.72
3885.95
5042.94
6660.69
8985.57
12409.6
17585.3
25808.8
40556.7
74450.0
177916.0
614520.0
3976740.0
159.35
202.967
253.375
312.044
381.141
463.513
562.812
683.721
832.279
1016.39
1246.68
1537.58
1909.12
2389.72
3020.68
3863.59
5013.1
6620.1
8929.46
12331.3
17474.0
25643.0
40272.9
73835.1
176273.0
608674.0
3938790.0
159.358
202.912
253.289
311.926
380.983
463.317
562.575
683.424
831.89
1015.9
1246.08
1536.82
1908.15
2388.47
3019.05
3861.45
5010.25
6616.17
8924.04
12323.6
17463.2
25626.8
40245.3
73775.5
176114.0
608111.0
3935130.0
160.04
203.664
254.123
312.88
382.093
464.633
564.164
685.343
834.234
1018.79
1249.65
1541.3
1913.8
2395.68
3028.36
3873.64
5026.49
6638.27
8954.56
12366.2
17523.6
25716.7
40399.1
74109.1
177007.0
611287.0
3955750.0
161.089
204.832
255.456
314.43
383.924
466.813
566.774
688.513
838.113
1023.57
1255.59
1548.71
1923.17
2407.64
3043.82
3893.9
5053.49
6674.98
9005.29
12437.0
17623.9
25866.2
40655.2
74664.9
178493.0
616578.0
3990100.0
162.17
206.024
256.838
316.039
385.819
469.064
569.488
691.824
842.166
1028.57
1261.79
1556.47
1932.97
2420.15
3059.99
3915.1
5081.74
6713.38
9058.32
12511.0
17728.9
26022.7
40923.7
75248.5
180053.0
622128.0
4026140.0
162.864
206.821
257.755
317.104
387.078
470.576
571.31
694.022
844.849
1031.89
1265.91
1561.64
1939.5
2428.49
3070.76
3929.21
5100.54
6738.91
9093.62
12560.2
17798.7
26126.8
41102.8
75637.9
181093.0
625831.0
4050180.0
162.848
206.831
257.751
317.103
387.078
470.578
571.313
694.028
844.863
1031.9
1265.92
1561.64
1939.5
2428.49
3070.76
3929.22
5100.56
6738.92
9093.61
12560.2
17798.7
26126.8
41102.8
75637.9
181093.0
625831.0
4050180.0
162.174
206.026
256.841
316.038
385.82
469.078
569.501
691.817
842.168
1028.56
1261.79
1556.48
1932.98
2420.16
3060.0
3915.11
5081.76
6713.36
9058.32
12511.0
17728.9
26022.6
40923.7
75248.4
180053.0
622128.0
4026140.0
161.114
204.826
255.459
314.431
383.923
466.811
566.772
688.51
838.103
1023.58
1255.59
1548.72
1923.18
2407.65
3043.83
3893.92
5053.51
6675.0
9005.3
12437.0
17623.9
25866.2
40655.1
74664.9
178493.0
616578.0
3990100.0
160.052
203.656
254.129
312.884
382.102
464.64
564.155
685.333
834.217
1018.79
1249.66
1541.3
1913.8
2395.68
3028.36
3873.65
5026.51
6638.3
8954.57
12366.2
17523.6
25716.7
40399.0
74109.0
177007.0
611287.0
3955750.0
159.381
202.926
253.299
311.936
380.993
463.325
562.574
683.405
831.882
1015.9
1246.07
1536.82
1908.15
2388.47
3019.05
3861.44
5010.24
6616.19
8924.07
12323.6
17463.2
25626.8
40245.2
73775.5
176114.0
608111.0
3935130.0
159.398
202.987
253.387
312.059
381.154
463.529
562.827
683.718
832.262
1016.39
1246.68
1537.57
1909.11
2389.71
3020.67
3863.59
5013.12
6620.1
8929.45
12331.2
17474.0
25642.9
40272.8
73835.0
176273.0
608674.0
3938790.0
160.335
204.146
254.77
313.695
383.101
465.875
565.673
687.192
836.512
1021.61
1253.18
1545.73
1919.42
2402.89
3037.72
3885.95
5042.94
6660.65
8985.55
12409.6
17585.2
25808.7
40556.5
74449.9
177916.0
614520.0
3976740.0
162.571
206.779
257.835
317.294
387.385
471.006
571.872
694.738
845.747
1033.01
1267.35
1563.48
1941.88
2431.6
3074.85
3934.67
5107.9
6749.01
9107.68
12580.0
17827.0
26169.5
41176.2
75795.5
181510.0
627308.0
4059740.0
166.426
211.256
262.999
323.357
394.591
479.65
582.32
707.451
861.33
1052.23
1291.23
1593.4
1979.72
2479.96
3137.44
4016.79
5217.42
6897.95
9313.51
12867.1
18234.2
26778.3
42228.2
78087.4
187627.0
649054.0
4200880.0
172.293
218.009
270.791
332.499
405.463
492.699
598.099
726.649
884.86
1081.28
1327.33
1638.65
2036.97
2553.17
3232.2
4141.19
5383.39
7123.67
9625.23
13301.3
18849.7
27702.2
43839.9
81614.7
197028.0
682451.0
4417590.0
180.764
227.506
281.72
345.361
420.78
511.105
620.377
753.801
918.147
1122.35
1378.4
1702.67
2117.98
2656.77
3366.32
4317.29
5618.36
7443.22
10066.1
13914.3
19718.7
29014.6
46160.6
86721.6
210611.0
730650.0
4730320.0
192.331
239.87
296.089
362.332
441.019
535.441
649.881
789.797
962.338
1176.97
1446.36
1787.9
2225.8
2794.59
3544.62
4551.18
5930.11
7866.52
10648.7
14722.0
20863.2
30758.9
49298.4
93663.7
229023.0
795904.0
5153630.0
192.136
239.697
295.944
362.218
440.937
535.39
649.848
789.777
962.33
1176.97
1446.37
1787.92
2225.84
2794.64
3544.68
4551.26
5930.21
7866.64
10648.9
14722.3
20863.7
30759.7
49299.5
93664.6
229023.0
795904.0
5153630.0
180.566
227.32
281.577
345.246
420.691
511.031
620.323
753.774
918.13
1122.34
1378.4
1702.69
2118.01
2656.81
3366.38
4317.38
5618.46
7443.33
10066.3
13914.6
19719.2
29015.4
46161.7
86722.6
210611.0
730650.0
4730320.0
172.145
217.858
270.658
332.396
405.383
492.641
598.054
726.633
884.851
1081.26
1327.33
1638.66
2036.99
2553.2
3232.23
4141.23
5383.44
7123.77
9625.36
13301.5
18850.1
27702.9
43840.8
81615.6
197028.0
682451.0
4417590.0
166.291
211.113
262.891
323.269
394.524
479.6
582.276
707.427
861.306
1052.22
1291.22
1593.41
1979.73
2479.98
3137.47
4016.84
5217.49
6898.08
9313.68
12867.3
18234.5
26778.9
42229.0
78088.1
187627.0
649055.0
4200880.0
162.475
206.669
257.74
317.22
387.323
470.958
571.845
694.712
845.75
1033.02
1267.36
1563.49
1941.9
2431.61
3074.87
3934.7
5107.94
6749.07
9107.77
12580.2
17827.3
26170.0
41176.9
75796.2
181511.0
627308.0
4059740.0
160.276
204.064
254.699
313.634
383.053
465.838
565.645
687.175
836.505
1021.62
1253.18
1545.73
1919.43
2402.91
3037.73
3885.97
5042.97
6660.74
8985.66
12409.7
17585.5
25809.1
40557.1
74450.4
177916.0
614520.0
3976740.0
159.312
202.919
253.328
312.009
381.113
463.494
562.804
683.713
832.25
1016.37
1246.68
1537.58
1909.12
2389.72
3020.67
3863.59
5013.11
6620.1
8929.49
12331.3
17474.2
25643.2
40273.3
73835.4
176273.0
608674.0
3938790.0
159.339
202.872
253.256
311.897
380.962
463.298
562.556
683.406
831.874
1015.89
1246.07
1536.81
1908.15
2388.47
3019.06
3861.46
5010.27
6616.21
8924.06
12323.7
17463.3
25627.0
40245.6
73775.8
176115.0
608111.0
3935130.0
160.032
203.628
254.088
312.856
382.081
464.624
564.138
685.328
834.215
1018.79
1249.66
1541.29
1913.8
2395.68
3028.36
3873.65
5026.51
6638.29
8954.59
12366.3
17523.7
25716.9
40399.3
74109.3
177007.0
611287.0
3955750.0
161.057
204.794
255.432
314.409
383.908
466.801
566.756
688.506
838.106
1023.56
1255.59
1548.71
1923.17
2407.64
3043.82
3893.91
5053.5
6674.99
9005.28
12437.0
17624.0
25866.3
40655.3
74665.1
178493.0
616578.0
3990100.0
162.128
206.011
256.815
316.021
385.81
469.07
569.495
691.812
842.164
1028.57
1261.78
1556.47
1932.97
2420.15
3059.99
3915.1
5081.74
6713.36
9058.34
12511.0
17728.9
26022.7
40923.9
75248.6
180053.0
622128.0
4026140.0
162.851
206.802
257.735
317.089
387.071
470.576
571.313
694.024
844.848
1031.88
1265.9
1561.63
1939.49
2428.48
3070.75
3929.2
5100.53
6738.9
9093.6
12560.2
17798.7
26126.9
41102.9
75638.0
181093.0
625831.0
4050180.0
162.857
206.818
257.737
317.091
387.069
470.571
571.299
694.024
844.855
1031.89
1265.91
1561.63
1939.49
2428.47
3070.74
3929.2
5100.52
6738.89
9093.59
12560.2
17798.6
26126.8
41102.9
75638.0
181093.0
625831.0
4050180.0
162.16
206.027
256.83
316.029
385.811
469.06
569.486
691.821
842.159
1028.56
1261.78
1556.46
1932.96
2420.15
3059.98
3915.09
5081.73
6713.35
9058.32
12511.0
17728.8
26022.7
40923.8
75248.5
180053.0
622128.0
4026140.0
161.08
204.815
255.448
314.424
383.912
466.809
566.761
688.501
838.108
1023.56
1255.58
1548.71
1923.16
2407.63
3043.81
3893.89
5053.47
6674.95
9005.29
12437.0
17623.9
25866.2
40655.2
74664.9
178493.0
616578.0
3990100.0
160.052
203.647
254.118
312.879
382.093
464.64
564.164
685.343
834.236
1018.8
1249.66
1541.29
1913.79
2395.67
3028.34
3873.62
5026.47
6638.25
8954.54
12366.2
17523.6
25716.7
40399.0
74109.0
177007.0
611287.0
3955750.0
159.397
202.918
253.297
311.931
380.984
463.325
562.577
683.411
831.891
1015.91
1246.08
1536.81
1908.14
2388.46
3019.03
3861.42
5010.21
6616.15
8924.03
12323.6
17463.2
25626.8
40245.2
73775.5
176114.0
608111.0
3935130.0
159.397
202.982
253.383
312.056
381.152
463.526
562.831
683.735
832.274
1016.39
1246.67
1537.57
1909.11
2389.7
3020.65
3863.57
5013.1
6620.08
8929.44
12331.2
17474.0
25642.9
40272.8
73834.9
176273.0
608674.0
3938790.0
160.349
204.146
254.772
313.694
383.106
465.874
565.668
687.186
836.505
1021.6
1253.17
1545.71
1919.41
2402.88
3037.7
3885.93
5042.92
6660.65
8985.53
12409.5
17585.2
25808.6
40556.5
74449.8
177916.0
614520.0
3976740.0
162.567
206.788
257.832
317.295
387.38
471.0
571.866
694.742
845.76
1033.02
1267.35
1563.47
1941.87
2431.58
3074.84
3934.65
5107.87
6748.97
9107.65
12580.0
17827.0
26169.5
41176.2
75795.5
181510.0
627308.0
4059740.0
166.421
211.25
263.004
323.362
394.596
479.654
582.323
707.45
861.32
1052.22
1291.21
1593.38
1979.7
2479.94
3137.41
4016.78
5217.43
6897.97
9313.51
12867.1
18234.1
26778.3
42228.1
78087.3
187627.0
649054.0
4200880.0
172.294
218.022
270.798
332.505
405.466
492.693
598.094
726.664
884.868
1081.27
1327.32
1638.64
2036.96
2553.15
3232.17
4141.15
5383.33
7123.61
9625.17
13301.2
18849.7
27702.2
43839.9
81614.7
197028.0
682451.0
4417590.0
180.767
227.515
281.729
345.367
420.78
511.097
620.378
753.801
918.146
1122.35
1378.39
1702.67
2117.97
2656.77
3366.32
4317.3
5618.35
7443.21
10066.1
13914.3
19718.6
29014.6
46160.6
86721.6
210611.0
730650.0
4730320.0
192.338
239.881
296.098
362.336
441.021
535.44
649.876
789.782
962.333
1176.97
1446.36
1787.9
2225.8
2794.59
3544.62
4551.19
5930.1
7866.52
10648.7
14722.0
20863.2
30758.9
49298.4
93663.7
229023.0
795904.0
5153630.0
164.128
153.984
146.616
141.136
137.316
134.873
133.541
133.082
133.259
133.823
134.498
134.975
135.003
134.524
133.848
133.294
133.13
133.605
134.955
137.424
141.293
146.79
154.211
164.315
153.997
143.457
135.439
129.419
125.017
121.921
119.886
118.702
118.171
118.096
118.265
118.446
118.453
118.279
118.12
118.207
118.75
119.95
122.003
125.124
129.576
135.632
143.692
154.214
146.596
135.421
126.719
120.086
115.096
111.411
108.78
107.002
105.905
105.325
105.1
105.061
105.063
105.114
105.348
105.938
107.047
108.839
111.488
115.196
120.214
126.881
135.623
146.813
141.099
129.384
120.069
112.828
107.257
103.018
99.8559
97.5725
96.0076
95.0191
94.4809
94.265
94.2685
94.4926
95.0386
96.0345
97.6108
99.908
103.088
107.348
112.946
120.223
129.578
141.311
137.264
124.966
115.064
107.242
101.122
96.3704
92.7331
90.0135
88.07
86.7342
85.9437
85.587
85.5892
85.951
86.7467
88.076
90.042
92.7753
96.4293
101.202
107.352
115.21
125.154
137.473
134.808
121.859
111.367
102.991
96.3577
91.1405
87.0825
83.9851
81.7193
80.1228
79.125
78.6575
78.6577
79.1295
80.117
81.7204
84.0026
87.1113
91.1876
96.4283
103.091
111.505
122.041
135.015
133.471
119.816
108.726
99.8182
92.7098
87.0719
82.6647
79.2389
76.6677
74.8458
73.68
73.1219
73.1131
73.6742
74.8366
76.6675
79.2397
82.6583
87.107
92.7709
99.9108
108.858
119.992
133.673
133.005
118.625
106.941
97.5269
89.9805
83.9638
79.2297
75.5232
72.6999
70.7068
69.3923
68.7811
68.7806
69.4114
70.7
72.7216
75.5294
79.2174
83.9911
90.0349
97.6139
107.07
118.801
133.207
133.18
118.091
105.839
95.9559
88.0158
81.667
76.6476
72.7174
69.7222
67.5581
66.1565
65.4658
65.463
66.1444
67.5297
69.6937
72.7117
76.6559
81.7016
88.0815
96.0529
105.988
118.287
133.38
133.742
118.014
105.257
94.9657
86.6903
80.0633
74.7991
70.6944
67.5536
65.2771
63.7915
63.0554
63.0504
63.7825
65.2632
67.5372
70.689
74.8032
80.1026
86.7497
95.0405
105.379
118.205
133.945
134.418
118.181
105.031
94.4254
85.8969
79.064
73.6312
69.3742
66.1233
63.7787
62.2415
61.4736
61.4739
62.2261
63.7509
66.1318
69.3852
73.6548
79.1048
85.9568
94.5009
105.173
118.37
134.607
134.891
118.364
104.99
94.2079
85.5382
78.5922
73.0693
68.7564
65.4443
63.0217
61.4562
60.6661
60.6844
61.4415
63.0304
65.4326
68.7216
73.0802
78.6259
85.5755
94.3043
105.127
118.548
135.079
134.892
118.367
104.993
94.2104
85.5397
78.5925
73.0685
68.7515
65.447
63.019
61.4405
60.6596
60.6744
61.4529
63.0172
65.4289
68.7322
73.0559
78.6177
85.5961
94.3052
105.106
118.529
135.097
134.426
118.192
105.04
94.4329
85.9013
79.0653
73.6318
69.3916
66.1393
63.7711
62.202
61.4313
61.43
62.2076
63.7561
66.1172
69.3684
73.6187
79.0712
85.9344
94.5288
105.175
118.372
134.614
133.76
118.031
105.273
94.9776
86.6973
80.0644
74.7936
70.6659
67.5346
65.2547
63.7607
63.0011
62.9945
63.7281
65.235
67.5204
70.6719
74.8085
80.0942
86.731
95.0701
105.386
118.192
133.963
133.205
118.115
105.86
95.9719
88.0248
81.6667
76.6231
72.6912
69.676
67.5088
66.1208
65.4195
65.398
66.0835
67.4899
69.6811
72.6844
76.6328
81.6917
88.0744
96.0594
105.999
118.3
133.411
133.036
118.656
106.968
97.5469
89.9919
83.9647
79.2195
75.501
72.6881
70.6627
69.3617
68.7376
68.7292
69.3414
70.6388
72.6708
75.4818
79.2019
83.9858
90.0381
97.6281
107.093
118.829
133.231
133.507
119.852
108.758
99.8425
92.7252
87.0756
82.6407
79.2076
76.6309
74.7973
73.6302
73.0733
73.0765
73.6219
74.7736
76.6048
79.186
82.6307
87.0904
92.7656
99.9164
108.872
120.013
133.695
134.853
121.902
111.406
103.023
96.3818
91.1562
87.076
83.9641
81.6641
80.0595
79.0589
78.5899
78.6113
79.0599
80.0599
81.6653
83.9688
87.0883
91.1754
96.4277
103.102
111.525
122.067
135.044
137.317
125.019
115.114
107.287
101.157
96.3923
92.7382
90.0046
88.0364
86.7086
85.9139
85.5583
85.5725
85.9195
86.7168
88.0476
90.0206
92.762
96.4263
101.21
107.371
115.239
125.19
137.514
141.168
129.452
120.135
112.902
107.327
103.065
99.8761
97.5813
96.0082
95.0163
94.4753
94.259
94.264
94.4846
95.0308
96.028
97.608
99.9115
103.1
107.37
112.978
120.265
129.628
141.367
146.7
135.523
126.804
120.154
115.156
111.461
108.82
107.035
105.933
105.35
105.124
105.087
105.098
105.134
105.369
105.959
107.07
108.866
111.522
115.237
120.264
126.941
135.691
146.89
154.076
143.557
135.533
129.505
125.096
121.994
119.955
118.768
118.232
118.155
118.323
118.507
118.51
118.335
118.175
118.261
118.805
120.006
122.063
125.187
129.627
135.691
143.762
154.309
164.199
154.093
146.724
141.24
137.415
134.971
133.656
133.19
133.35
133.914
134.589
135.062
135.063
134.6
133.934
133.379
133.214
133.689
135.04
137.51
141.365
146.889
154.309
164.45
)
