FoamFile
{
    version     2.0;
    format      ascii;
    class       vectorField;
    object      U;
}
// * * * * * * * * * * * * * * * * * * * * * * * * * * * * * * //
3168
(
(2.332e-06 2.42277e-06 -9.69615)
(2.66083e-06 2.06894e-06 -9.74576)
(3.0099e-06 2.16207e-06 -9.78274)
(3.12139e-06 2.25439e-06 -9.80919)
(3.20976e-06 2.17199e-06 -9.82697)
(3.33315e-06 2.05496e-06 -9.83772)
(3.42235e-06 1.88041e-06 -9.84278)
(3.4712e-06 1.61056e-06 -9.8434)
(3.26862e-06 1.26668e-06 -9.84085)
(2.56984e-06 8.83196e-07 -9.8365)
(2.54394e-06 6.98365e-07 -9.83194)
(2.58193e-06 4.32592e-07 -9.82891)
(2.70625e-06 3.38296e-07 -9.82891)
(3.33722e-06 3.0897e-07 -9.83195)
(2.77903e-06 1.82233e-07 -9.83653)
(2.93114e-06 -1.55122e-07 -9.84089)
(3.48889e-06 -5.74301e-07 -9.84346)
(3.39792e-06 -8.02875e-07 -9.84285)
(3.23998e-06 -1.0283e-06 -9.8378)
(2.94042e-06 -1.18694e-06 -9.82706)
(2.51998e-06 -9.28175e-07 -9.80928)
(1.96067e-06 -2.89883e-07 -9.78282)
(2.21737e-06 -5.58723e-07 -9.74583)
(2.2981e-06 -9.92671e-07 -9.69619)
(2.21956e-06 2.5004e-06 -9.49658)
(2.37357e-06 2.15626e-06 -9.54537)
(2.49376e-06 1.92575e-06 -9.58426)
(2.79002e-06 1.92407e-06 -9.61273)
(2.62998e-06 1.65086e-06 -9.632)
(2.94057e-06 1.62107e-06 -9.64364)
(2.61693e-06 1.30804e-06 -9.64908)
(2.6274e-06 1.03271e-06 -9.64967)
(2.75144e-06 7.98043e-07 -9.6468)
(3.14733e-06 7.75498e-07 -9.64201)
(3.09075e-06 7.11078e-07 -9.637)
(2.67513e-06 6.38441e-07 -9.63368)
(2.99735e-06 5.98392e-07 -9.63368)
(2.78326e-06 4.66114e-07 -9.637)
(3.09895e-06 2.59426e-07 -9.64201)
(2.7579e-06 2.67826e-07 -9.6468)
(2.99953e-06 -1.74519e-08 -9.64966)
(2.51278e-06 -1.91435e-07 -9.64907)
(2.65294e-06 -5.00781e-07 -9.64363)
(2.23342e-06 -5.07306e-07 -9.63198)
(2.47321e-06 -7.3328e-07 -9.6127)
(2.43443e-06 -5.9201e-07 -9.58421)
(2.35592e-06 -5.82926e-07 -9.5453)
(2.37666e-06 -1.09973e-06 -9.49647)
(1.85194e-06 2.18021e-06 -9.28211)
(2.02626e-06 2.04153e-06 -9.33221)
(2.25753e-06 1.98353e-06 -9.3723)
(2.34538e-06 1.74258e-06 -9.40188)
(2.51353e-06 1.59404e-06 -9.42201)
(2.42412e-06 1.3236e-06 -9.43419)
(2.56182e-06 1.19194e-06 -9.43986)
(2.34812e-06 1.03391e-06 -9.44043)
(2.38912e-06 1.00516e-06 -9.43735)
(2.10524e-06 8.5481e-07 -9.43225)
(2.22403e-06 7.06373e-07 -9.42694)
(2.08112e-06 6.56845e-07 -9.42341)
(2.31216e-06 6.00955e-07 -9.42341)
(2.32506e-06 5.21632e-07 -9.42692)
(2.43346e-06 4.09008e-07 -9.43222)
(2.4712e-06 2.51716e-07 -9.43731)
(2.37449e-06 1.44029e-07 -9.44038)
(2.40974e-06 -3.55505e-08 -9.4398)
(2.21225e-06 -1.44571e-07 -9.43411)
(2.25076e-06 -2.9433e-07 -9.4219)
(2.22081e-06 -3.9055e-07 -9.40175)
(2.0421e-06 -4.13742e-07 -9.37214)
(1.96582e-06 -4.92337e-07 -9.33203)
(1.89158e-06 -7.41723e-07 -9.2819)
(1.39613e-06 1.82014e-06 -9.05896)
(1.54244e-06 1.76393e-06 -9.1102)
(1.70269e-06 1.72086e-06 -9.15123)
(1.81407e-06 1.55905e-06 -9.18157)
(1.91519e-06 1.38823e-06 -9.20225)
(1.89613e-06 1.16244e-06 -9.21479)
(1.95081e-06 1.01309e-06 -9.22061)
(1.85903e-06 9.37432e-07 -9.22115)
(1.79732e-06 8.97007e-07 -9.21794)
(1.63167e-06 8.20387e-07 -9.21263)
(1.69236e-06 7.40155e-07 -9.20712)
(1.70035e-06 6.88293e-07 -9.20347)
(1.79541e-06 5.98124e-07 -9.20346)
(1.95374e-06 5.6133e-07 -9.2071)
(1.95586e-06 5.32154e-07 -9.21259)
(1.93743e-06 3.61933e-07 -9.21787)
(1.98697e-06 2.62514e-07 -9.22107)
(1.95724e-06 1.6223e-07 -9.2205)
(1.90231e-06 -5.09977e-09 -9.21465)
(1.93053e-06 -1.3439e-07 -9.20209)
(1.88985e-06 -2.41238e-07 -9.18137)
(1.81625e-06 -3.28644e-07 -9.151)
(1.73211e-06 -3.58061e-07 -9.10994)
(1.63354e-06 -5.15963e-07 -9.05868)
(1.12469e-06 1.5916e-06 -8.8304)
(1.17375e-06 1.5121e-06 -8.88248)
(1.37317e-06 1.57369e-06 -8.92423)
(1.33605e-06 1.38654e-06 -8.95513)
(1.53409e-06 1.31719e-06 -8.97621)
(1.40431e-06 1.02837e-06 -8.98899)
(1.60695e-06 9.23649e-07 -8.99491)
(1.4804e-06 8.6084e-07 -8.99544)
(1.3902e-06 8.86026e-07 -8.99213)
(1.20907e-06 7.69842e-07 -8.98669)
(1.30703e-06 6.79975e-07 -8.98104)
(1.31555e-06 6.83387e-07 -8.9773)
(1.37006e-06 6.39383e-07 -8.97729)
(1.67894e-06 5.79778e-07 -8.98101)
(1.59681e-06 5.96376e-07 -8.98664)
(1.65449e-06 4.59261e-07 -8.99205)
(1.71818e-06 2.85906e-07 -8.99533)
(1.60966e-06 2.42495e-07 -8.99477)
(1.59244e-06 8.84617e-08 -8.98882)
(1.6362e-06 -3.55379e-08 -8.97601)
(1.60389e-06 -6.55176e-08 -8.95489)
(1.59713e-06 -1.54738e-07 -8.92395)
(1.45891e-06 -1.57082e-07 -8.88217)
(1.35182e-06 -2.95218e-07 -8.83007)
(8.83927e-07 1.39433e-06 -8.59812)
(9.22255e-07 1.30836e-06 -8.65086)
(9.61946e-07 1.34076e-06 -8.69321)
(9.77373e-07 1.2668e-06 -8.72455)
(1.233e-06 1.20057e-06 -8.74594)
(1.04934e-06 9.24083e-07 -8.75889)
(1.34638e-06 8.72479e-07 -8.76489)
(1.16217e-06 7.74299e-07 -8.76541)
(1.01311e-06 9.00161e-07 -8.76203)
(8.88309e-07 7.75747e-07 -8.7565)
(1.10617e-06 6.85086e-07 -8.75075)
(1.08764e-06 6.77991e-07 -8.74695)
(1.08888e-06 7.2829e-07 -8.74694)
(1.37309e-06 6.37171e-07 -8.75072)
(1.38922e-06 5.52739e-07 -8.75644)
(1.21707e-06 5.15109e-07 -8.76195)
(1.33188e-06 2.79625e-07 -8.76529)
(1.31601e-06 2.51246e-07 -8.76473)
(1.33877e-06 1.94288e-07 -8.7587)
(1.39633e-06 8.14815e-08 -8.74571)
(1.3967e-06 7.13498e-08 -8.72428)
(1.33401e-06 3.93807e-08 -8.6929)
(1.2988e-06 -4.82139e-08 -8.65052)
(1.16286e-06 -1.20382e-07 -8.59776)
(5.67916e-07 1.17942e-06 -8.36284)
(7.4634e-07 1.20228e-06 -8.41619)
(8.09175e-07 1.23333e-06 -8.45909)
(7.88307e-07 1.16118e-06 -8.49082)
(8.84389e-07 1.01856e-06 -8.51247)
(7.65735e-07 8.68742e-07 -8.52557)
(9.21605e-07 8.63755e-07 -8.53162)
(9.07583e-07 8.10567e-07 -8.53213)
(8.52342e-07 8.64129e-07 -8.52871)
(6.33046e-07 7.35514e-07 -8.52309)
(7.77924e-07 7.41239e-07 -8.51727)
(7.61996e-07 6.88311e-07 -8.51342)
(8.06197e-07 7.26615e-07 -8.51341)
(9.86626e-07 6.9406e-07 -8.51723)
(1.10203e-06 5.08976e-07 -8.52303)
(9.90166e-07 4.22467e-07 -8.52861)
(1.14745e-06 2.91798e-07 -8.53201)
(1.06589e-06 3.25019e-07 -8.53145)
(1.17266e-06 3.04322e-07 -8.52536)
(1.22983e-06 2.01117e-07 -8.51222)
(1.17746e-06 1.97804e-07 -8.49053)
(1.23799e-06 8.82502e-08 -8.45876)
(1.10786e-06 8.6297e-08 -8.41584)
(1.01843e-06 1.99673e-08 -8.36246)
(4.52433e-07 1.16631e-06 -8.12462)
(5.48554e-07 1.08316e-06 -8.17864)
(5.38186e-07 1.01282e-06 -8.22208)
(5.14027e-07 9.73122e-07 -8.2542)
(6.2232e-07 8.9604e-07 -8.27609)
(5.20673e-07 8.51747e-07 -8.28933)
(7.16297e-07 9.64163e-07 -8.29543)
(6.36696e-07 8.39701e-07 -8.29594)
(5.38153e-07 7.22315e-07 -8.29247)
(4.48396e-07 6.92511e-07 -8.28678)
(6.53334e-07 7.97309e-07 -8.28089)
(5.73558e-07 7.21272e-07 -8.27699)
(6.96025e-07 6.99577e-07 -8.27698)
(8.97948e-07 6.6435e-07 -8.28085)
(9.15752e-07 4.85231e-07 -8.28671)
(7.71301e-07 3.88831e-07 -8.29237)
(9.89999e-07 3.48484e-07 -8.29581)
(8.80783e-07 3.92182e-07 -8.29526)
(1.06979e-06 3.80098e-07 -8.28911)
(1.05359e-06 3.24245e-07 -8.27583)
(1.00079e-06 2.69849e-07 -8.2539)
(1.02116e-06 2.4759e-07 -8.22174)
(9.99051e-07 1.39436e-07 -8.17827)
(8.64435e-07 1.35243e-07 -8.12424)
(2.58212e-07 1.02427e-06 -7.88308)
(3.94227e-07 9.48529e-07 -7.93786)
(4.0496e-07 9.25944e-07 -7.9819)
(3.80188e-07 9.24534e-07 -8.01443)
(4.81532e-07 8.58264e-07 -8.03658)
(3.03862e-07 8.38012e-07 -8.04996)
(4.52149e-07 9.33832e-07 -8.05613)
(4.40784e-07 7.9589e-07 -8.05663)
(4.25526e-07 6.90508e-07 -8.05311)
(2.95075e-07 7.20444e-07 -8.04735)
(4.73946e-07 8.38852e-07 -8.04139)
(4.90235e-07 7.41682e-07 -8.03744)
(6.001e-07 6.8451e-07 -8.03743)
(7.28945e-07 6.26613e-07 -8.04135)
(6.9085e-07 4.75146e-07 -8.04728)
(6.33793e-07 4.04126e-07 -8.05301)
(8.80834e-07 3.7396e-07 -8.0565)
(7.40009e-07 3.96004e-07 -8.05595)
(9.07502e-07 4.52019e-07 -8.04974)
(9.33031e-07 4.22021e-07 -8.03632)
(9.46321e-07 2.89987e-07 -8.01412)
(9.4861e-07 2.89063e-07 -7.98155)
(8.59637e-07 2.44962e-07 -7.93748)
(7.85008e-07 1.93972e-07 -7.88269)
(1.95792e-07 9.59164e-07 -7.63743)
(3.21765e-07 8.99379e-07 -7.69312)
(3.0313e-07 8.66023e-07 -7.73785)
(2.18112e-07 8.45567e-07 -7.77085)
(2.89825e-07 7.98287e-07 -7.79329)
(1.90741e-07 8.30142e-07 -7.80684)
(3.33204e-07 8.77031e-07 -7.81308)
(3.4161e-07 7.88448e-07 -7.81358)
(3.59422e-07 7.18761e-07 -7.81001)
(1.74031e-07 7.26781e-07 -7.80417)
(3.68063e-07 8.60675e-07 -7.79812)
(3.46946e-07 7.34855e-07 -7.79412)
(5.27584e-07 6.60656e-07 -7.79411)
(5.90076e-07 6.14927e-07 -7.79808)
(6.42479e-07 4.61552e-07 -7.8041)
(5.33864e-07 4.34427e-07 -7.8099)
(7.72571e-07 4.07522e-07 -7.81344)
(6.84672e-07 3.65197e-07 -7.8129)
(8.34643e-07 4.59015e-07 -7.80662)
(8.7572e-07 4.54413e-07 -7.79303)
(8.55178e-07 3.66314e-07 -7.77054)
(8.53311e-07 3.38903e-07 -7.7375)
(8.17461e-07 2.49321e-07 -7.69274)
(7.05674e-07 2.35196e-07 -7.63704)
(1.10256e-07 8.65268e-07 -7.38652)
(2.30136e-07 8.23645e-07 -7.44332)
(2.09667e-07 7.75155e-07 -7.48887)
(1.5172e-07 8.01117e-07 -7.52242)
(1.81239e-07 7.90323e-07 -7.54522)
(1.02223e-07 8.0911e-07 -7.55897)
(2.43032e-07 8.2273e-07 -7.56529)
(2.46763e-07 7.83668e-07 -7.5658)
(2.59345e-07 7.34711e-07 -7.56216)
(8.85042e-08 7.27661e-07 -7.55624)
(3.15007e-07 8.68255e-07 -7.55009)
(3.12868e-07 7.26365e-07 -7.54603)
(4.99676e-07 6.47717e-07 -7.54601)
(5.41007e-07 6.15165e-07 -7.55005)
(5.4192e-07 4.69035e-07 -7.55616)
(4.74653e-07 4.46928e-07 -7.56206)
(7.24728e-07 4.20802e-07 -7.56566)
(6.01766e-07 3.76596e-07 -7.56511)
(7.33871e-07 4.90528e-07 -7.55875)
(7.63949e-07 4.71806e-07 -7.54495)
(8.17841e-07 3.64742e-07 -7.52211)
(7.82951e-07 3.74078e-07 -7.48852)
(7.34704e-07 2.74142e-07 -7.44294)
(6.68957e-07 2.31248e-07 -7.38613)
(5.94525e-08 7.88223e-07 -7.12883)
(1.67274e-07 7.56015e-07 -7.18698)
(1.6783e-07 7.12227e-07 -7.23351)
(8.07309e-08 7.57114e-07 -7.26773)
(7.85871e-08 7.59465e-07 -7.29097)
(6.11915e-08 7.77403e-07 -7.30497)
(1.97191e-07 7.9374e-07 -7.3114)
(1.49495e-07 7.64553e-07 -7.31191)
(2.24755e-07 7.5825e-07 -7.30821)
(4.45087e-08 7.41963e-07 -7.30217)
(2.56357e-07 8.77749e-07 -7.29591)
(2.32433e-07 7.29192e-07 -7.29177)
(4.43537e-07 6.42487e-07 -7.29175)
(4.54362e-07 6.1993e-07 -7.29586)
(4.87462e-07 4.79768e-07 -7.3021)
(4.03674e-07 4.59382e-07 -7.30811)
(6.77966e-07 4.17411e-07 -7.31177)
(5.85204e-07 3.72606e-07 -7.31123)
(6.80004e-07 5.19668e-07 -7.30475)
(6.79414e-07 4.72524e-07 -7.2907)
(7.4799e-07 3.44469e-07 -7.26742)
(7.33722e-07 3.73929e-07 -7.23316)
(6.77958e-07 2.64801e-07 -7.18661)
(6.32499e-07 2.28703e-07 -7.12845)
(7.73567e-09 7.02001e-07 -6.8624)
(1.1304e-07 6.85511e-07 -6.92218)
(1.27785e-07 6.4603e-07 -6.9699)
(1.76867e-08 7.12133e-07 -7.00495)
(-1.38467e-08 7.11317e-07 -7.02872)
(4.14357e-08 7.37848e-07 -7.04304)
(1.31363e-07 7.54718e-07 -7.04962)
(9.5352e-08 7.5371e-07 -7.05013)
(1.73361e-07 7.74145e-07 -7.04635)
(1.00188e-08 7.53807e-07 -7.04017)
(2.04056e-07 8.87186e-07 -7.03377)
(1.77425e-07 7.42334e-07 -7.02953)
(3.78099e-07 6.38768e-07 -7.02951)
(3.98607e-07 6.2932e-07 -7.03372)
(4.17235e-07 5.04582e-07 -7.0401)
(3.339e-07 4.6332e-07 -7.04625)
(6.15166e-07 4.08684e-07 -7.05)
(5.41361e-07 3.78288e-07 -7.04944)
(6.50184e-07 5.39295e-07 -7.04282)
(6.07017e-07 4.7178e-07 -7.02846)
(6.65645e-07 3.21574e-07 -7.00465)
(6.55613e-07 3.8259e-07 -6.96956)
(6.02962e-07 2.60944e-07 -6.92181)
(5.79956e-07 2.37837e-07 -6.86203)
(-4.11364e-08 6.15808e-07 -6.58469)
(5.98965e-08 6.08503e-07 -6.64643)
(8.85159e-08 5.76123e-07 -6.69562)
(-3.28969e-08 6.64324e-07 -6.73169)
(-7.44073e-08 6.66847e-07 -6.75614)
(9.33793e-09 6.84898e-07 -6.77085)
(7.95586e-08 7.17289e-07 -6.7776)
(4.15946e-08 7.40406e-07 -6.77814)
(1.19566e-07 7.81828e-07 -6.77425)
(-2.23648e-08 7.58663e-07 -6.7679)
(1.59314e-07 8.94899e-07 -6.76132)
(1.18998e-07 7.56963e-07 -6.75697)
(3.30141e-07 6.34387e-07 -6.75695)
(3.40488e-07 6.4579e-07 -6.76128)
(3.47933e-07 5.34721e-07 -6.76783)
(2.71263e-07 4.59148e-07 -6.77415)
(5.45026e-07 3.96267e-07 -6.778)
(4.99638e-07 3.81924e-07 -6.77743)
(6.00351e-07 5.61238e-07 -6.77063)
(5.547e-07 4.60044e-07 -6.75587)
(5.84974e-07 2.97724e-07 -6.73139)
(5.81753e-07 3.82034e-07 -6.69528)
(5.2755e-07 2.56709e-07 -6.64607)
(5.17752e-07 2.533e-07 -6.58431)
(-8.43221e-08 5.36661e-07 -6.29237)
(4.48441e-09 5.24788e-07 -6.35653)
(5.22591e-08 5.0559e-07 -6.40751)
(-7.23872e-08 6.1461e-07 -6.44486)
(-1.21632e-07 6.20695e-07 -6.47014)
(-2.15005e-08 6.26278e-07 -6.48535)
(2.31255e-08 6.74995e-07 -6.49233)
(-8.67205e-09 7.22299e-07 -6.49288)
(7.0802e-08 7.80036e-07 -6.48887)
(-5.35753e-08 7.56916e-07 -6.48231)
(1.10728e-07 8.96548e-07 -6.47551)
(6.87073e-08 7.67986e-07 -6.47101)
(2.81377e-07 6.30134e-07 -6.47099)
(2.86729e-07 6.62093e-07 -6.47547)
(2.86565e-07 5.58641e-07 -6.48224)
(2.19266e-07 4.49181e-07 -6.48877)
(4.69361e-07 3.85095e-07 -6.49275)
(4.45417e-07 3.86758e-07 -6.49216)
(5.45682e-07 5.76732e-07 -6.48514)
(4.95719e-07 4.50966e-07 -6.46988)
(5.05968e-07 2.74928e-07 -6.44456)
(5.07316e-07 3.78616e-07 -6.40718)
(4.52292e-07 2.54527e-07 -6.35617)
(4.55924e-07 2.65901e-07 -6.292)
(-1.198e-07 4.68929e-07 -5.98109)
(-4.10465e-08 4.47134e-07 -6.0482)
(1.63599e-08 4.33494e-07 -6.10142)
(-9.98335e-08 5.6415e-07 -6.14036)
(-1.56787e-07 5.75333e-07 -6.16669)
(-5.37071e-08 5.63699e-07 -6.18253)
(-2.31922e-08 6.3221e-07 -6.18979)
(-4.89972e-08 6.98379e-07 -6.19037)
(2.60009e-08 7.66128e-07 -6.1862)
(-8.19399e-08 7.47638e-07 -6.17938)
(6.02726e-08 8.89673e-07 -6.17231)
(2.62961e-08 7.71685e-07 -6.16763)
(2.30029e-07 6.24784e-07 -6.1676)
(2.37318e-07 6.72882e-07 -6.17226)
(2.30912e-07 5.7351e-07 -6.17931)
(1.78439e-07 4.34794e-07 -6.1861)
(3.96267e-07 3.75293e-07 -6.19024)
(3.90811e-07 3.85796e-07 -6.18963)
(4.87603e-07 5.85028e-07 -6.18232)
(4.32857e-07 4.43548e-07 -6.16644)
(4.27174e-07 2.55511e-07 -6.14006)
(4.372e-07 3.69909e-07 -6.10109)
(3.83629e-07 2.49443e-07 -6.04785)
(4.01315e-07 2.69999e-07 -5.98073)
(-1.49763e-07 4.11519e-07 -5.645)
(-7.75741e-08 3.76288e-07 -5.71576)
(-1.29517e-08 3.65137e-07 -5.77177)
(-1.22054e-07 5.10166e-07 -5.81269)
(-1.81121e-07 5.31698e-07 -5.84035)
(-7.79339e-08 5.03018e-07 -5.85697)
(-6.40575e-08 5.84965e-07 -5.8646)
(-7.82557e-08 6.67505e-07 -5.86521)
(-1.53049e-08 7.3814e-07 -5.86083)
(-1.02404e-07 7.30216e-07 -5.85369)
(1.89089e-08 8.72206e-07 -5.84628)
(-7.37447e-10 7.65508e-07 -5.84137)
(1.82244e-07 6.16821e-07 -5.84134)
(1.94164e-07 6.73966e-07 -5.84623)
(1.87937e-07 5.74824e-07 -5.85362)
(1.4612e-07 4.16492e-07 -5.86074)
(3.33497e-07 3.65327e-07 -5.86508)
(3.36183e-07 3.77677e-07 -5.86443)
(4.33803e-07 5.83282e-07 -5.85676)
(3.73649e-07 4.34769e-07 -5.84009)
(3.56008e-07 2.35408e-07 -5.8124)
(3.7418e-07 3.5453e-07 -5.77144)
(3.20845e-07 2.40634e-07 -5.71542)
(3.54501e-07 2.64593e-07 -5.64465)
(-1.73e-07 3.64603e-07 -5.27449)
(-1.00328e-07 3.15944e-07 -5.3501)
(-3.50135e-08 3.02359e-07 -5.40985)
(-1.35181e-07 4.55482e-07 -5.45347)
(-1.94009e-07 4.89127e-07 -5.48292)
(-9.70919e-08 4.43092e-07 -5.50062)
(-9.0539e-08 5.35481e-07 -5.50874)
(-9.46056e-08 6.28732e-07 -5.5094)
(-5.01031e-08 6.94818e-07 -5.50476)
(-1.14597e-07 7.03232e-07 -5.49717)
(-1.72001e-08 8.41176e-07 -5.48929)
(-1.88445e-08 7.47512e-07 -5.48406)
(1.37224e-07 6.04673e-07 -5.48404)
(1.55882e-07 6.6244e-07 -5.48924)
(1.50678e-07 5.60825e-07 -5.4971)
(1.21115e-07 3.94453e-07 -5.50467)
(2.79399e-07 3.55036e-07 -5.50928)
(2.86503e-07 3.59728e-07 -5.50858)
(3.84174e-07 5.71788e-07 -5.50041)
(3.19277e-07 4.23055e-07 -5.48267)
(2.88327e-07 2.17705e-07 -5.45318)
(3.17897e-07 3.32431e-07 -5.40953)
(2.65546e-07 2.25241e-07 -5.34976)
(3.11609e-07 2.515e-07 -5.27414)
(-1.90461e-07 3.24902e-07 -4.85612)
(-1.09837e-07 2.64217e-07 -4.93799)
(-4.82621e-08 2.46526e-07 -5.00267)
(-1.41855e-07 3.98157e-07 -5.04987)
(-1.95782e-07 4.45092e-07 -5.08173)
(-1.04243e-07 3.86324e-07 -5.10087)
(-1.06295e-07 4.81664e-07 -5.10967)
(-1.02087e-07 5.78304e-07 -5.11039)
(-7.35679e-08 6.35346e-07 -5.10538)
(-1.17524e-07 6.65119e-07 -5.09719)
(-4.01598e-08 7.96023e-07 -5.08868)
(-2.77355e-08 7.16204e-07 -5.08304)
(1.00118e-07 5.85884e-07 -5.08302)
(1.23453e-07 6.36184e-07 -5.08864)
(1.23202e-07 5.28797e-07 -5.09712)
(1.0032e-07 3.6867e-07 -5.10529)
(2.34215e-07 3.42703e-07 -5.11027)
(2.40218e-07 3.31887e-07 -5.10951)
(3.37996e-07 5.49351e-07 -5.10067)
(2.74075e-07 4.03548e-07 -5.08149)
(2.30602e-07 1.98024e-07 -5.04959)
(2.67931e-07 3.0286e-07 -5.00236)
(2.17749e-07 2.01638e-07 -4.93766)
(2.70129e-07 2.31275e-07 -4.85578)
(-2.00187e-07 2.90859e-07 -4.37569)
(-1.08957e-07 2.17322e-07 -4.46443)
(-5.394e-08 1.9605e-07 -4.53467)
(-1.39071e-07 3.39551e-07 -4.58598)
(-1.87063e-07 3.96999e-07 -4.62064)
(-1.0384e-07 3.29954e-07 -4.64147)
(-1.11605e-07 4.218e-07 -4.65105)
(-1.01977e-07 5.13333e-07 -4.65185)
(-8.36225e-08 5.59057e-07 -4.64641)
(-1.13636e-07 6.13877e-07 -4.63752)
(-5.25948e-08 7.34966e-07 -4.62828)
(-3.15438e-08 6.69214e-07 -4.62215)
(7.10793e-08 5.57374e-07 -4.62213)
(9.7384e-08 5.9364e-07 -4.62823)
(9.9411e-08 4.7836e-07 -4.63745)
(8.29229e-08 3.3812e-07 -4.64632)
(1.94957e-07 3.26912e-07 -4.65173)
(1.9558e-07 2.94158e-07 -4.65089)
(2.94379e-07 5.13971e-07 -4.64127)
(2.34306e-07 3.75289e-07 -4.62039)
(1.80451e-07 1.76771e-07 -4.5857)
(2.21575e-07 2.6601e-07 -4.53437)
(1.74055e-07 1.71379e-07 -4.46411)
(2.26748e-07 2.05726e-07 -4.37536)
(-1.99736e-07 2.60254e-07 -3.81973)
(-9.91555e-08 1.73135e-07 -3.91441)
(-5.25254e-08 1.49772e-07 -3.98977)
(-1.26721e-07 2.80613e-07 -4.04503)
(-1.68856e-07 3.42217e-07 -4.08245)
(-9.65413e-08 2.73632e-07 -4.10497)
(-1.05483e-07 3.54999e-07 -4.11535)
(-9.43603e-08 4.32276e-07 -4.11623)
(-8.1009e-08 4.66146e-07 -4.11037)
(-1.04006e-07 5.47782e-07 -4.10076)
(-5.63471e-08 6.56092e-07 -4.09079)
(-3.13658e-08 6.03677e-07 -4.08418)
(4.90828e-08 5.15651e-07 -4.08416)
(7.66221e-08 5.33684e-07 -4.09075)
(7.78527e-08 4.09627e-07 -4.1007)
(6.79139e-08 3.0189e-07 -4.11028)
(1.59236e-07 3.05025e-07 -4.11611)
(1.52371e-07 2.46807e-07 -4.1152)
(2.5106e-07 4.6415e-07 -4.10479)
(1.97083e-07 3.36648e-07 -4.08221)
(1.3763e-07 1.53066e-07 -4.04476)
(1.77383e-07 2.22864e-07 -3.98948)
(1.32281e-07 1.35941e-07 -3.9141)
(1.81978e-07 1.73919e-07 -3.81941)
(-1.87335e-07 2.28269e-07 -3.17578)
(-8.14887e-08 1.3021e-07 -3.27343)
(-4.4265e-08 1.07127e-07 -3.35203)
(-1.06526e-07 2.19933e-07 -3.4101)
(-1.41684e-07 2.79272e-07 -3.44964)
(-8.29334e-08 2.16748e-07 -3.47351)
(-8.95438e-08 2.81252e-07 -3.48454)
(-7.8528e-08 3.36173e-07 -3.48549)
(-6.82366e-08 3.59023e-07 -3.47929)
(-8.87113e-08 4.65155e-07 -3.46911)
(-5.24594e-08 5.57659e-07 -3.45856)
(-2.70485e-08 5.17781e-07 -3.45157)
(3.32573e-08 4.56534e-07 -3.45156)
(5.93428e-08 4.55534e-07 -3.45852)
(5.80525e-08 3.24846e-07 -3.46905)
(5.55042e-08 2.58725e-07 -3.4792)
(1.26261e-07 2.73654e-07 -3.48538)
(1.11026e-07 1.91245e-07 -3.48439)
(2.06126e-07 3.98465e-07 -3.47334)
(1.60417e-07 2.85778e-07 -3.44942)
(1.01927e-07 1.25856e-07 -3.40985)
(1.34858e-07 1.74706e-07 -3.35176)
(9.19401e-08 9.70603e-08 -3.27315)
(1.36872e-07 1.35851e-07 -3.17549)
(-1.62966e-07 1.89686e-07 -2.46218)
(-5.91584e-08 8.91182e-08 -2.55313)
(-3.16805e-08 6.8621e-08 -2.62764)
(-8.12743e-08 1.58707e-07 -2.68344)
(-1.0833e-07 2.09286e-07 -2.72178)
(-6.45913e-08 1.5969e-07 -2.74508)
(-6.77063e-08 2.03123e-07 -2.75588)
(-5.6825e-08 2.31458e-07 -2.75683)
(-4.90896e-08 2.44827e-07 -2.75077)
(-6.87685e-08 3.66763e-07 -2.74083)
(-4.32247e-08 4.40648e-07 -2.73055)
(-2.02182e-08 4.11386e-07 -2.72374)
(2.17842e-08 3.77993e-07 -2.72373)
(4.38844e-08 3.60822e-07 -2.73051)
(3.98978e-08 2.31636e-07 -2.74078)
(4.40408e-08 2.08486e-07 -2.75069)
(9.46373e-08 2.30703e-07 -2.75673)
(7.27923e-08 1.32013e-07 -2.75576)
(1.58508e-07 3.17895e-07 -2.74493)
(1.22488e-07 2.23718e-07 -2.72159)
(7.17533e-08 9.60407e-08 -2.68322)
(9.43268e-08 1.24741e-07 -2.62741)
(5.52433e-08 5.88489e-08 -2.55288)
(9.37393e-08 9.53693e-08 -2.46193)
(-1.29325e-07 1.45794e-07 -1.76171)
(-3.74608e-08 5.4649e-08 -1.83243)
(-1.86879e-08 3.82992e-08 -1.8912)
(-5.56961e-08 1.03844e-07 -1.93572)
(-7.38197e-08 1.41423e-07 -1.96659)
(-4.4852e-08 1.07497e-07 -1.98547)
(-4.46195e-08 1.30898e-07 -1.99425)
(-3.4512e-08 1.36284e-07 -1.99502)
(-2.95671e-08 1.42613e-07 -1.9901)
(-4.77953e-08 2.63166e-07 -1.98204)
(-3.12839e-08 3.17535e-07 -1.97371)
(-1.30282e-08 2.96003e-07 -1.96821)
(1.39506e-08 2.861e-07 -1.9682)
(3.00349e-08 2.60341e-07 -1.97368)
(2.47329e-08 1.45291e-07 -1.982)
(3.34787e-08 1.54658e-07 -1.99004)
(6.62818e-08 1.77962e-07 -1.99495)
(4.16991e-08 7.95963e-08 -1.99415)
(1.11942e-07 2.3125e-07 -1.98535)
(8.59351e-08 1.58234e-07 -1.96645)
(4.75355e-08 6.68499e-08 -1.93556)
(5.99596e-08 7.99733e-08 -1.89102)
(2.70706e-08 2.86074e-08 -1.83225)
(5.80102e-08 5.965e-08 -1.76152)
(-9.15882e-08 1.01252e-07 -1.14629)
(-2.09968e-08 2.9761e-08 -1.19319)
(-9.22325e-09 1.82912e-08 -1.23231)
(-3.43291e-08 6.14289e-08 -1.26206)
(-4.48439e-08 8.5534e-08 -1.28275)
(-2.78698e-08 6.55335e-08 -1.29542)
(-2.60201e-08 7.49353e-08 -1.30132)
(-1.74648e-08 6.75634e-08 -1.30184)
(-1.48052e-08 6.98201e-08 -1.29854)
(-2.97104e-08 1.69653e-07 -1.29312)
(-2.0156e-08 2.05995e-07 -1.28753)
(-7.42141e-09 1.90601e-07 -1.28384)
(8.37468e-09 1.94151e-07 -1.28383)
(1.86797e-08 1.6901e-07 -1.28751)
(1.35501e-08 7.98323e-08 -1.29309)
(2.32857e-08 1.03607e-07 -1.2985)
(4.23859e-08 1.22712e-07 -1.3018)
(2.06701e-08 4.16392e-08 -1.30126)
(7.15773e-08 1.51275e-07 -1.29534)
(5.42717e-08 1.00094e-07 -1.28265)
(2.89298e-08 4.20991e-08 -1.26195)
(3.42663e-08 4.60147e-08 -1.23219)
(9.81141e-09 9.89437e-09 -1.19307)
(3.20638e-08 3.31733e-08 -1.14617)
(-5.38189e-08 5.86571e-08 -0.628553)
(-9.90317e-09 1.35346e-08 -0.654335)
(-3.65364e-09 6.93984e-09 -0.675853)
(-1.78889e-08 3.08631e-08 -0.692224)
(-2.28357e-08 4.34278e-08 -0.703612)
(-1.46024e-08 3.38717e-08 -0.71059)
(-1.27903e-08 3.59959e-08 -0.713841)
(-6.87134e-09 2.60045e-08 -0.714129)
(-5.6866e-09 2.6414e-08 -0.712307)
(-1.54935e-08 9.17433e-08 -0.709325)
(-1.09474e-08 1.1226e-07 -0.706246)
(-3.54196e-09 1.02607e-07 -0.704214)
(4.29304e-09 1.09949e-07 -0.70421)
(9.80137e-09 9.22096e-08 -0.706236)
(6.11485e-09 3.59949e-08 -0.70931)
(1.35048e-08 5.81203e-08 -0.712286)
(2.28253e-08 7.01595e-08 -0.714102)
(8.20784e-09 1.74505e-08 -0.713806)
(3.85312e-08 8.28118e-08 -0.710548)
(2.86048e-08 5.27876e-08 -0.703559)
(1.48702e-08 2.2236e-08 -0.692165)
(1.63757e-08 2.21684e-08 -0.67579)
(1.44874e-09 9.45422e-10 -0.654269)
(1.46071e-08 1.51941e-08 -0.628488)
(-1.79825e-08 1.92958e-08 -0.196492)
(-2.63967e-09 3.42689e-09 -0.204559)
(-7.64461e-10 1.27819e-09 -0.211291)
(-5.36385e-09 8.82313e-09 -0.216413)
(-6.58338e-09 1.24289e-08 -0.219976)
(-4.36983e-09 1.00018e-08 -0.22216)
(-3.63124e-09 9.71152e-09 -0.223177)
(-1.29881e-09 4.54319e-09 -0.223267)
(-9.81629e-10 4.43137e-09 -0.222697)
(-4.52828e-09 2.81904e-08 -0.221764)
(-3.42813e-09 3.4828e-08 -0.2208)
(-9.47951e-10 3.12602e-08 -0.220165)
(1.25499e-09 3.54085e-08 -0.220164)
(2.88791e-09 2.86898e-08 -0.220797)
(1.47014e-09 8.65427e-09 -0.221759)
(4.47407e-09 1.85001e-08 -0.22269)
(6.92421e-09 2.2648e-08 -0.223259)
(1.56512e-09 3.58134e-09 -0.223166)
(1.17527e-08 2.56686e-08 -0.222146)
(8.45368e-09 1.55966e-08 -0.21996)
(4.29463e-09 6.58207e-09 -0.216395)
(4.30342e-09 5.90444e-09 -0.211271)
(-8.26636e-10 -1.21977e-09 -0.204538)
(3.53368e-09 3.70617e-09 -0.196472)
(2.06529e-06 2.66101e-06 -9.69616)
(2.12448e-06 2.9294e-06 -9.49658)
(1.65363e-06 2.1797e-06 -9.28211)
(1.30066e-06 1.75883e-06 -9.05896)
(9.65474e-07 1.45266e-06 -8.8304)
(6.9619e-07 1.23447e-06 -8.59812)
(5.25553e-07 1.0869e-06 -8.36284)
(3.90482e-07 9.71592e-07 -8.12463)
(2.75701e-07 8.65333e-07 -7.88309)
(1.95307e-07 7.57169e-07 -7.63743)
(1.50279e-07 6.75961e-07 -7.38653)
(1.16389e-07 5.97149e-07 -7.12884)
(8.54193e-08 5.22769e-07 -6.86241)
(5.68503e-08 4.54115e-07 -6.58469)
(2.67638e-08 3.88065e-07 -6.29237)
(-6.35443e-10 3.29114e-07 -5.98109)
(-2.72586e-08 2.75297e-07 -5.64501)
(-4.95886e-08 2.30608e-07 -5.2745)
(-6.74187e-08 1.93904e-07 -4.85613)
(-7.99539e-08 1.63166e-07 -4.3757)
(-8.5799e-08 1.36471e-07 -3.81974)
(-8.36578e-08 1.11647e-07 -3.17579)
(-7.35926e-08 8.69153e-08 -2.46219)
(-5.7899e-08 6.3227e-08 -1.76171)
(-4.04282e-08 4.18663e-08 -1.14629)
(-2.32955e-08 2.32519e-08 -0.628556)
(-7.51676e-09 7.33875e-09 -0.196493)
(1.54602e-06 2.61416e-06 -9.74578)
(1.69856e-06 2.91835e-06 -9.54538)
(1.53447e-06 2.52155e-06 -9.33222)
(1.24543e-06 2.01017e-06 -9.1102)
(1.07928e-06 1.77427e-06 -8.88248)
(8.5093e-07 1.52077e-06 -8.65087)
(6.75977e-07 1.29982e-06 -8.4162)
(5.09383e-07 1.03646e-06 -8.17865)
(4.38569e-07 9.21991e-07 -7.93787)
(2.92786e-07 7.7951e-07 -7.69313)
(2.15066e-07 7.28145e-07 -7.44333)
(1.3249e-07 6.65315e-07 -7.18699)
(6.8275e-08 6.1782e-07 -6.92219)
(5.91186e-09 5.63474e-07 -6.64645)
(-5.50376e-08 4.99205e-07 -6.35655)
(-1.03167e-07 4.39344e-07 -6.04822)
(-1.39154e-07 3.83954e-07 -5.71578)
(-1.61024e-07 3.3591e-07 -5.35012)
(-1.70613e-07 2.9285e-07 -4.93801)
(-1.71168e-07 2.49717e-07 -4.46445)
(-1.62285e-07 2.05805e-07 -3.91443)
(-1.42769e-07 1.61759e-07 -3.27345)
(-1.14507e-07 1.18483e-07 -2.55314)
(-8.30522e-08 8.0239e-08 -1.83244)
(-5.42709e-08 4.96054e-08 -1.19319)
(-2.98239e-08 2.59852e-08 -0.654339)
(-9.35617e-09 7.70735e-09 -0.20456)
(1.36434e-06 2.62326e-06 -9.78276)
(1.57723e-06 2.88228e-06 -9.58428)
(1.48022e-06 2.58426e-06 -9.37231)
(1.15575e-06 2.056e-06 -9.15124)
(9.20552e-07 1.67587e-06 -8.92425)
(6.99451e-07 1.41719e-06 -8.69323)
(5.54568e-07 1.16165e-06 -8.45911)
(5.44462e-07 9.94029e-07 -8.2221)
(4.52934e-07 7.86066e-07 -7.98192)
(3.97865e-07 6.99873e-07 -7.73788)
(3.34293e-07 5.99648e-07 -7.48889)
(2.80514e-07 5.10587e-07 -7.23354)
(2.27662e-07 4.25631e-07 -6.96993)
(1.78117e-07 3.52725e-07 -6.69565)
(1.28056e-07 2.84453e-07 -6.40754)
(7.96066e-08 2.22824e-07 -6.10145)
(4.00455e-08 1.75924e-07 -5.7718)
(7.04326e-09 1.37702e-07 -5.40988)
(-1.65482e-08 1.10743e-07 -5.0027)
(-3.38116e-08 9.03323e-08 -4.5347)
(-4.5183e-08 7.49958e-08 -3.9898)
(-5.08772e-08 6.25633e-08 -3.35206)
(-5.03769e-08 5.10747e-08 -2.62766)
(-4.39385e-08 3.92194e-08 -1.89121)
(-3.32671e-08 2.73682e-08 -1.23232)
(-2.04625e-08 1.59595e-08 -0.675859)
(-7.05578e-09 5.29781e-09 -0.211293)
(1.45773e-06 2.86894e-06 -9.80921)
(1.6535e-06 3.07194e-06 -9.61276)
(1.39053e-06 2.64668e-06 -9.4019)
(1.0982e-06 2.22159e-06 -9.18159)
(9.52407e-07 1.88277e-06 -8.95516)
(8.36248e-07 1.51688e-06 -8.72459)
(7.72222e-07 1.28461e-06 -8.49086)
(6.32721e-07 1.01536e-06 -8.25424)
(5.20864e-07 8.06271e-07 -8.01447)
(4.90627e-07 6.56954e-07 -7.77089)
(4.54693e-07 5.01083e-07 -7.52246)
(4.25857e-07 3.84643e-07 -7.26777)
(3.90976e-07 2.8858e-07 -7.00499)
(3.57228e-07 2.19098e-07 -6.73173)
(3.17502e-07 1.5884e-07 -6.4449)
(2.75905e-07 1.09729e-07 -6.1404)
(2.34119e-07 7.0745e-08 -5.81273)
(1.93028e-07 4.02754e-08 -5.45351)
(1.53436e-07 1.80905e-08 -5.04991)
(1.15346e-07 5.06227e-09 -4.58602)
(7.87985e-08 7.93682e-10 -4.04506)
(4.43831e-08 3.01288e-09 -3.41014)
(1.48062e-08 7.98262e-09 -2.68347)
(-4.65038e-09 1.14688e-08 -1.93575)
(-1.23514e-08 1.13584e-08 -1.26207)
(-1.12542e-08 8.09702e-09 -0.692233)
(-4.91288e-09 3.06772e-09 -0.216416)
(1.68515e-06 3.44667e-06 -9.827)
(1.70096e-06 3.49052e-06 -9.63203)
(1.38427e-06 2.98401e-06 -9.42204)
(1.11746e-06 2.39249e-06 -9.20229)
(9.65615e-07 2.05791e-06 -8.97625)
(7.41754e-07 1.52575e-06 -8.74599)
(6.61227e-07 1.18067e-06 -8.51252)
(5.65549e-07 9.37441e-07 -8.27614)
(4.78068e-07 7.66175e-07 -8.03663)
(4.27965e-07 6.15671e-07 -7.79335)
(3.79078e-07 4.84088e-07 -7.54527)
(3.26571e-07 3.81703e-07 -7.29102)
(2.74895e-07 2.99602e-07 -7.02878)
(2.2516e-07 2.32236e-07 -6.75619)
(1.78894e-07 1.80808e-07 -6.4702)
(1.34865e-07 1.39794e-07 -6.16675)
(9.32053e-08 1.06596e-07 -5.8404)
(5.50559e-08 8.07839e-08 -5.48298)
(2.07367e-08 6.09446e-08 -5.08179)
(-7.88334e-09 4.82473e-08 -4.62069)
(-3.01976e-08 4.12881e-08 -4.08249)
(-4.58107e-08 3.74583e-08 -3.44968)
(-5.32487e-08 3.42757e-08 -2.72182)
(-5.09401e-08 2.97811e-08 -1.96662)
(-4.06086e-08 2.29648e-08 -1.28276)
(-2.5747e-08 1.43755e-08 -0.703622)
(-9.09964e-09 5.05377e-09 -0.219979)
(1.65431e-06 3.65056e-06 -9.83774)
(1.26325e-06 3.33452e-06 -9.64368)
(1.19615e-06 2.93241e-06 -9.43423)
(1.09367e-06 2.44639e-06 -9.21483)
(8.58629e-07 2.03282e-06 -8.98904)
(6.0929e-07 1.62594e-06 -8.75895)
(5.67056e-07 1.34213e-06 -8.52563)
(5.36646e-07 9.77196e-07 -8.28939)
(5.40355e-07 8.16954e-07 -8.05003)
(4.82339e-07 6.46878e-07 -7.80691)
(4.04329e-07 5.0416e-07 -7.55904)
(3.39213e-07 4.03096e-07 -7.30504)
(2.77575e-07 3.18045e-07 -7.04311)
(2.19595e-07 2.48366e-07 -6.77092)
(1.67267e-07 1.89601e-07 -6.48542)
(1.23415e-07 1.41313e-07 -6.1826)
(8.97263e-08 1.02375e-07 -5.85704)
(6.66856e-08 7.06422e-08 -5.50069)
(5.40288e-08 4.41459e-08 -5.10094)
(5.08576e-08 2.19829e-08 -4.64153)
(5.5474e-08 3.23423e-09 -4.10504)
(6.47419e-08 -1.2227e-08 -3.47357)
(7.29574e-08 -2.35881e-08 -2.74514)
(7.30341e-08 -2.84098e-08 -1.98551)
(6.14885e-08 -2.57996e-08 -1.29545)
(4.09165e-08 -1.77575e-08 -0.710605)
(1.51747e-08 -6.70529e-09 -0.222164)
(1.25094e-06 3.35795e-06 -9.8428)
(1.2353e-06 3.69127e-06 -9.64912)
(1.1424e-06 3.13964e-06 -9.43991)
(1.03118e-06 2.51312e-06 -9.22066)
(8.80817e-07 2.07171e-06 -8.99497)
(6.86544e-07 1.62574e-06 -8.76495)
(5.62842e-07 1.39797e-06 -8.53169)
(4.67381e-07 1.08727e-06 -8.29551)
(4.54666e-07 9.14107e-07 -8.05621)
(3.8694e-07 7.53293e-07 -7.81316)
(3.09653e-07 6.26426e-07 -7.56538)
(2.29774e-07 5.13457e-07 -7.31149)
(1.53305e-07 4.21549e-07 -7.0497)
(8.76089e-08 3.57856e-07 -6.77769)
(2.97191e-08 3.03379e-07 -6.49242)
(-1.87128e-08 2.5484e-07 -6.18988)
(-5.69123e-08 2.10343e-07 -5.86468)
(-8.40682e-08 1.71472e-07 -5.50883)
(-1.00439e-07 1.35114e-07 -5.10975)
(-1.04642e-07 1.03615e-07 -4.65113)
(-9.74838e-08 7.72624e-08 -4.11543)
(-8.1312e-08 5.51511e-08 -3.48461)
(-5.95755e-08 3.64484e-08 -2.75595)
(-3.7705e-08 2.1537e-08 -1.9943)
(-2.0633e-08 1.11358e-08 -1.30136)
(-9.1665e-09 4.5912e-09 -0.71386)
(-2.12505e-09 9.18385e-10 -0.223183)
(1.19218e-06 3.90505e-06 -9.84342)
(9.94795e-07 3.46967e-06 -9.64971)
(9.85632e-07 3.13904e-06 -9.44048)
(8.42165e-07 2.4651e-06 -9.22121)
(7.91944e-07 2.01135e-06 -8.99551)
(6.98241e-07 1.56797e-06 -8.76549)
(5.669e-07 1.22031e-06 -8.53222)
(4.59679e-07 1.01461e-06 -8.29603)
(3.6497e-07 7.57826e-07 -8.05673)
(3.20796e-07 6.45674e-07 -7.81368)
(2.7421e-07 5.4201e-07 -7.5659)
(2.34617e-07 4.62762e-07 -7.31201)
(2.02057e-07 3.96853e-07 -7.05024)
(1.76713e-07 3.39876e-07 -6.77824)