/*--------------------------------*- C++ -*----------------------------------*\
| =========                 |                                                 |
| \\      /  F ield         | OpenFOAM: The Open Source CFD Toolbox           |
|  \\    /   O peration     | Version:  v2512                                 |
|   \\  /    A nd           | Website:  www.openfoam.com                      |
|    \\/     M anipulation  |                                                 |
\*---------------------------------------------------------------------------*/
FoamFile
{
    version     2.0;
    format      ascii;
    class       dictionary;
    object      controlDict;
}
// * * * * * * * * * * * * * * * * * * * * * * * * * * * * * * * * * * * * * //

application     simpleFoam;

startFrom       startTime;
startTime       0;

stopAt          endTime;
endTime         10000;       // number of iterations

deltaT          1;          // always 1 for steady-state

writeControl    timeStep;
writeInterval   1;        // write every 10 iterations

purgeWrite      0;

writeFormat     ascii;
writePrecision  6;
writeCompression off;

timeFormat      general;
timePrecision   6;

runTimeModifiable true;

functions
{
    inletP
    {
        type            surfaceFieldValue;
        libs            (fieldFunctionObjects);
        regionType      patch;
        name            inlet;
        operation       areaAverage;
        fields          (p);
        writeFields     false;
        surfaceFormat   null;
        writeControl    timeStep;
        writeInterval   1;
        log             true;
    }

    yPlus
    {
        type            yPlus;
        libs            (fieldFunctionObjects);
        writeControl    timeStep;
        writeInterval   100;
    }
}
// ************************************************************************* //
