FoamFile
{
    format      ascii;
    class       dictionary;
    object      mapFieldsDict;
}

mapMethod mapNearest;

patchMap
{
    inlet outlet;
}

cuttingPatches
(
);

transformType translational;

offset (0 0 -7.28);
